
**** 02/22/22 16:11:12 ********* PSpice 9.2 (Mar 2000) ******** ID# 0 ********

 * E:\OneDrive - BUET\Tahsin\CODING ZONE\PSPICE Simulation\ALL EXPERIMENTS\EEE 208\OP-AMP\Regulated Variable DC Power Supply Generati


 ****     CIRCUIT DESCRIPTION


******************************************************************************




* Schematics Version 9.2
* Tue Feb 22 16:11:07 2022


.PARAM         var1=1k 

** Analysis setup **
.tran 30u 0.28 0 30u
.STEP LIN PARAM var1 50 3k 100 
.OP 


* From [PSPICE NETLIST] section of C:\Program Files\Orcad\PSpice\PSpice.ini:
.lib "nom.lib"

.INC "Final_ckt.net"



**** INCLUDING Final_ckt.net ****
* Schematics Netlist *



X_U3         0 $N_0001 V+ V- $N_0002 uA741
R_R3         $N_0002 $N_0001  {var1}  
R_R14         0 $N_0005  1k  
X_U10         $N_0005 $N_0006 V+ V- $N_0006 uA741
R_R17         $N_0009 $N_0006  1k  
Q_Q1         $N_0006 $N_0010 $N_0011 Q2N3904
V_V4         $N_0009 0 1.5V
X_U12         $N_0009 $N_0012 V+ V- $N_0010 uA741
X_U9         $N_0015 $N_0005 V+ V- $N_0005 uA741
V_V2         0 V- 15V
V_V3         V+ 0 15V
V_V1         0 $N_0018 0.184V
R_R6         $N_0020 $N_0019  1k  
R_R7         $N_0019 $N_0021  1k  
R_R8         0 $N_0020  1k  
R_R9         $N_0023 $N_0022  1k  
X_U4         0 $N_0023 V+ V- $N_0022 uA741
X_U5         $N_0022 $N_0026 V+ $N_0018 $N_0026 uA741
X_U6         $N_0026 $N_0020 V+ V- $N_0019 uA741
X_U11         0 $N_0021 V+ V- $N_0031 uA741
R_R16         $N_0021 $N_0031  1k  
R_R21         $N_0035 $N_0034  1  
R_R22         0 $N_0036  100k  
X_U14         $N_0036 $N_0037 V+ V- $N_0037 uA741
X_TX1    $N_0034 0 $N_0036 0 Final_ckt_TX1 
R_R5         $N_0037 $N_0023  1k  
R_R10         $N_0037 $N_0021  1k  
C_C1         0 $N_0005  500u  
R_R19         $N_0012 $N_0011  650k  
R_R18         0 $N_0012  650k  
X_U1         0 $N_0040 V+ V- $N_0041 uA741
R_R1         $N_0041 $N_0040  1k  
R_R4         $N_0040 $N_0011  1k  
R_R25         0 $N_0002  100k  
R_R15         $N_0031 $N_0044  1k  
X_U7         0 $N_0044 V+ V- $N_0015 uA741
R_R12         $N_0044 $N_0015  1k  
V_V6         $N_0035 0 DC 0 AC 0
+SIN 0 220V 50 0 0 0
R_R20         $N_0001 $N_0041  500  

.subckt Final_ckt_TX1 1 2 3 4  
K_TX1         L1_TX1 L2_TX1 1
L1_TX1         1 2 440mH
L2_TX1         3 4 0.23mH
.ends Final_ckt_TX1

**** RESUMING Final_ckt.cir ****
.PROBE V(*) I(*) W(*) D(*) NOISE(*) 


.END

**** 02/22/22 16:11:12 ********* PSpice 9.2 (Mar 2000) ******** ID# 0 ********

 * E:\OneDrive - BUET\Tahsin\CODING ZONE\PSPICE Simulation\ALL EXPERIMENTS\EEE 208\OP-AMP\Regulated Variable DC Power Supply Generati


 ****     Diode MODEL PARAMETERS


******************************************************************************




               X_U3.dx         X_U3.dy         X_U10.dx        X_U10.dy        
          IS  800.000000E-18  800.000000E-18  800.000000E-18  800.000000E-18 
          RS    1               1.000000E-03    1               1.000000E-03 
         CJO                   10.000000E-12                   10.000000E-12 


               X_U12.dx        X_U12.dy        X_U9.dx         X_U9.dy         
          IS  800.000000E-18  800.000000E-18  800.000000E-18  800.000000E-18 
          RS    1               1.000000E-03    1               1.000000E-03 
         CJO                   10.000000E-12                   10.000000E-12 


               X_U4.dx         X_U4.dy         X_U5.dx         X_U5.dy         
          IS  800.000000E-18  800.000000E-18  800.000000E-18  800.000000E-18 
          RS    1               1.000000E-03    1               1.000000E-03 
         CJO                   10.000000E-12                   10.000000E-12 


               X_U6.dx         X_U6.dy         X_U11.dx        X_U11.dy        
          IS  800.000000E-18  800.000000E-18  800.000000E-18  800.000000E-18 
          RS    1               1.000000E-03    1               1.000000E-03 
         CJO                   10.000000E-12                   10.000000E-12 


               X_U14.dx        X_U14.dy        X_U1.dx         X_U1.dy         
          IS  800.000000E-18  800.000000E-18  800.000000E-18  800.000000E-18 
          RS    1               1.000000E-03    1               1.000000E-03 
         CJO                   10.000000E-12                   10.000000E-12 


               X_U7.dx         X_U7.dy         
          IS  800.000000E-18  800.000000E-18 
          RS    1               1.000000E-03 
         CJO                   10.000000E-12 


**** 02/22/22 16:11:12 ********* PSpice 9.2 (Mar 2000) ******** ID# 0 ********

 * E:\OneDrive - BUET\Tahsin\CODING ZONE\PSPICE Simulation\ALL EXPERIMENTS\EEE 208\OP-AMP\Regulated Variable DC Power Supply Generati


 ****     BJT MODEL PARAMETERS


******************************************************************************




               Q2N3904         X_U3.qx         X_U10.qx        X_U12.qx        
               NPN             NPN             NPN             NPN             
          IS    6.734000E-15  800.000000E-18  800.000000E-18  800.000000E-18 
          BF  416.4            93.75           93.75           93.75         
          NF    1               1               1               1            
         VAF   74.03                                                         
         IKF     .06678                                                      
         ISE    6.734000E-15                                                 
          NE    1.259                                                        
          BR     .7371          1               1               1            
          NR    1               1               1               1            
          RB   10                                                            
          RC    1                                                            
         CJE    4.493000E-12                                                 
         MJE     .2593                                                       
         CJC    3.638000E-12                                                 
         MJC     .3085                                                       
          TF  301.200000E-12                                                 
         XTF    2                                                            
         VTF    4                                                            
         ITF     .4                                                          
          TR  239.500000E-09                                                 
         XTB    1.5                                                          
          CN    2.42            2.42            2.42            2.42         
           D     .87             .87             .87             .87         


               X_U9.qx         X_U4.qx         X_U5.qx         X_U6.qx         
               NPN             NPN             NPN             NPN             
          IS  800.000000E-18  800.000000E-18  800.000000E-18  800.000000E-18 
          BF   93.75           93.75           93.75           93.75         
          NF    1               1               1               1            
          BR    1               1               1               1            
          NR    1               1               1               1            
          CN    2.42            2.42            2.42            2.42         
           D     .87             .87             .87             .87         


               X_U11.qx        X_U14.qx        X_U1.qx         X_U7.qx         
               NPN             NPN             NPN             NPN             
          IS  800.000000E-18  800.000000E-18  800.000000E-18  800.000000E-18 
          BF   93.75           93.75           93.75           93.75         
          NF    1               1               1               1            
          BR    1               1               1               1            
          NR    1               1               1               1            
          CN    2.42            2.42            2.42            2.42         
           D     .87             .87             .87             .87         


**** 02/22/22 16:11:12 ********* PSpice 9.2 (Mar 2000) ******** ID# 0 ********

 * E:\OneDrive - BUET\Tahsin\CODING ZONE\PSPICE Simulation\ALL EXPERIMENTS\EEE 208\OP-AMP\Regulated Variable DC Power Supply Generati


 ****     SMALL SIGNAL BIAS SOLUTION       TEMPERATURE =   27.000 DEG C

 ****     CURRENT STEP                     PARAM VAR1 =   50    


******************************************************************************



 NODE   VOLTAGE     NODE   VOLTAGE     NODE   VOLTAGE     NODE   VOLTAGE


(   V+)   15.0000  (   V-)  -15.0000  (X_U1.6) 105.5E-06 (X_U1.7)    -.8845     

(X_U1.8)    -.8845 (X_U1.9)    0.0000 (X_U3.6)-29.30E-06 (X_U3.7)     .1539     

(X_U3.8)     .1539 (X_U3.9)    0.0000 (X_U4.6)-11.64E-09 (X_U4.7) 106.2E-06     

(X_U4.8) 106.2E-06 (X_U4.9)    0.0000 (X_U5.6)     .2304 (X_U5.7)   -1.2039     

(X_U5.8)   -1.2039 (X_U5.9)    0.0000 (X_U6.6)-3.021E-06 (X_U6.7)     .0281     

(X_U6.8)     .0281 (X_U6.9)    0.0000 (X_U7.6)-2.835E-06 (X_U7.7)     .0274     

(X_U7.8)     .0274 (X_U7.9)    0.0000 (X_U9.6)-2.837E-06 (X_U9.7)     .0274     

(X_U9.8)     .0274 (X_U9.9)    0.0000 ($N_0001) 17.69E-06                       

($N_0002)     .0769                   ($N_0005)     .0261                       

($N_0006)     .7301                   ($N_0009)    1.5000                       

($N_0010)    1.9292                   ($N_0011)     .7692                       

($N_0012)     .3846                   ($N_0015)     .0261                       

($N_0018)    -.1840                   ($N_0019)     .0261                       

($N_0020)     .0130                   ($N_0021) 19.42E-06                       

($N_0022) 99.01E-06                   ($N_0023) 19.25E-06                       

($N_0026)     .0130                   ($N_0031)    -.0260                       

($N_0034)    0.0000                   ($N_0035)    0.0000                       

($N_0036)    0.0000                   ($N_0037) 19.25E-06                       

($N_0040) 24.86E-06                   ($N_0041)    -.7691                       

($N_0044) 19.10E-06                   (X_U1.10)    -.6077                       

(X_U1.11)   14.9600                   (X_U1.12)   14.9600                       

(X_U1.13)    -.5938                   (X_U1.14)    -.5938                       

(X_U1.53)   14.0000                   (X_U1.54)  -14.0000                       

(X_U1.90)   -2.3074                   (X_U1.91)   40.0000                       

(X_U1.92)  -40.0000                   (X_U1.99)    0.0000                       

(X_U10.6)    1.5007                   (X_U10.7)   -1.3006                       

(X_U10.8)   -1.3006                   (X_U10.9)    0.0000                       

(X_U11.6) 3.193E-06                   (X_U11.7)    -.0286                       

(X_U11.8)    -.0286                   (X_U11.9)    0.0000                       

(X_U12.6)   -1.5059                   (X_U12.7)    3.9599                       

(X_U12.8)    3.9599                   (X_U12.9)    0.0000                       

(X_U14.6)-3.200E-09                   (X_U14.7) 23.23E-06                       

(X_U14.8) 23.23E-06                   (X_U14.9)    0.0000                       

(X_U3.10)    -.6077                   (X_U3.11)   14.9600                       

(X_U3.12)   14.9600                   (X_U3.13)    -.5938                       

(X_U3.14)    -.5938                   (X_U3.53)   14.0000                       

(X_U3.54)  -14.0000                   (X_U3.90)    1.5391                       

(X_U3.91)   40.0000                   (X_U3.92)  -40.0000                       

(X_U3.99)    0.0000                   (X_U4.10)    -.6077                       

(X_U4.11)   14.9600                   (X_U4.12)   14.9600                       

(X_U4.13)    -.5938                   (X_U4.14)    -.5938                       

(X_U4.53)   14.0000                   (X_U4.54)  -14.0000                       

(X_U4.90) 144.0E-06                   (X_U4.91)   40.0000                       

(X_U4.92)  -40.0000                   (X_U4.99)    0.0000                       

(X_U5.10)    -.5993                   (X_U5.11)   14.9560                       

(X_U5.12)   14.9680                   (X_U5.13)    -.5837                       

(X_U5.14)    -.5881                   (X_U5.53)   14.0000                       

(X_U5.54)     .8160                   (X_U5.90)  -24.3390                       

(X_U5.91)   40.0000                   (X_U5.92)  -40.0000                       

(X_U5.99)    7.4080                   (X_U6.10)    -.5947                       

(X_U6.11)   14.9600                   (X_U6.12)   14.9600                       

(X_U6.13)    -.5808                   (X_U6.14)    -.5808                       

(X_U6.53)   14.0000                   (X_U6.54)  -14.0000                       

(X_U6.90)     .0392                   (X_U6.91)   40.0000                       

(X_U6.92)  -40.0000                   (X_U6.99)    0.0000                       

(X_U7.10)    -.6077                   (X_U7.11)   14.9600                       

(X_U7.12)   14.9600                   (X_U7.13)    -.5938                       

(X_U7.14)    -.5938                   (X_U7.53)   14.0000                       

(X_U7.54)  -14.0000                   (X_U7.90)     .0262                       

(X_U7.91)   40.0000                   (X_U7.92)  -40.0000                       

(X_U7.99)    0.0000                   (X_U9.10)    -.5816                       

(X_U9.11)   14.9600                   (X_U9.12)   14.9600                       

(X_U9.13)    -.5677                   (X_U9.14)    -.5677                       

(X_U9.53)   14.0000                   (X_U9.54)  -14.0000                       

(X_U9.90)     .0262                   (X_U9.91)   40.0000                       

(X_U9.92)  -40.0000                   (X_U9.99)    0.0000                       

(X_U10.10)     .0905                  (X_U10.11)   14.9200                      

(X_U10.12)   15.0000                  (X_U10.13)     .1183                      

(X_U10.14)     .0905                  (X_U10.53)   14.0000                      

(X_U10.54)  -14.0000                  (X_U10.90)  -40.6130                      

(X_U10.91)   40.0000                  (X_U10.92)  -40.0000                      

(X_U10.99)    0.0000                  (X_U11.10)    -.6077                      

(X_U11.11)   14.9600                  (X_U11.12)   14.9600                      

(X_U11.13)    -.5938                  (X_U11.14)    -.5938                      

(X_U11.53)   14.0000                  (X_U11.54)  -14.0000                      

(X_U11.90)    -.0520                  (X_U11.91)   40.0000                      

(X_U11.92)  -40.0000                  (X_U11.99)    0.0000                      

(X_U12.10)     .8601                  (X_U12.11)   15.0000                      

(X_U12.12)   14.9200                  (X_U12.13)     .8601                      

(X_U12.14)     .8881                  (X_U12.53)   14.0000                      

(X_U12.54)  -14.0000                  (X_U12.90)   40.6130                      

(X_U12.91)   40.0000                  (X_U12.92)  -40.0000                      

(X_U12.99)    0.0000                  (X_U14.10)    -.6077                      

(X_U14.11)   14.9600                  (X_U14.12)   14.9600                      

(X_U14.13)    -.5938                  (X_U14.14)    -.5938                      

(X_U14.53)   14.0000                  (X_U14.54)  -14.0000                      

(X_U14.90) 79.59E-06                  (X_U14.91)   40.0000                      

(X_U14.92)  -40.0000                  (X_U14.99)    0.0000                  




    VOLTAGE SOURCE CURRENTS
    NAME         CURRENT

    V_V4        -7.700E-04
    V_V2        -1.667E-02
    V_V3        -1.752E-02
    V_V1         2.349E-02
    V_V6         0.000E+00
    X_U3.vb     -2.930E-10
    X_U3.vc      1.392E-11
    X_U3.ve      1.440E-11
    X_U3.vlim    1.539E-03
    X_U3.vlp    -3.846E-11
    X_U3.vln    -4.154E-11
    X_U10.vb     1.501E-05
    X_U10.vc     1.327E-11
    X_U10.ve     1.455E-11
    X_U10.vlim  -4.061E-02
    X_U10.vlp   -8.061E-11
    X_U10.vln    1.592E-05
    X_U12.vb    -1.506E-05
    X_U12.vc     1.207E-11
    X_U12.ve     1.637E-11
    X_U12.vlim   4.061E-02
    X_U12.vlp    1.597E-05
    X_U12.vln   -8.062E-11
    X_U9.vb     -2.837E-11
    X_U9.vc      1.397E-11
    X_U9.ve      1.455E-11
    X_U9.vlim    2.619E-05
    X_U9.vlp    -3.997E-11
    X_U9.vln    -4.003E-11
    X_U4.vb     -1.164E-13
    X_U4.vc      1.400E-11
    X_U4.ve      1.455E-11
    X_U4.vlim    1.440E-07
    X_U4.vlp    -4.000E-11
    X_U4.vln    -4.000E-11
    X_U5.vb      2.304E-06
    X_U5.vc      1.399E-11
    X_U5.ve     -2.434E-02
    X_U5.vlim   -2.434E-02
    X_U5.vlp    -6.434E-11
    X_U5.vln    -1.566E-11
    X_U6.vb     -3.021E-11
    X_U6.vc      1.397E-11
    X_U6.ve      1.455E-11
    X_U6.vlim    3.917E-05
    X_U6.vlp    -3.996E-11
    X_U6.vln    -4.004E-11
    X_U11.vb     3.193E-11
    X_U11.vc     1.403E-11
    X_U11.ve     1.455E-11
    X_U11.vlim  -5.200E-05
    X_U11.vlp   -4.005E-11
    X_U11.vln   -3.995E-11
    X_U14.vb    -3.200E-14
    X_U14.vc     1.400E-11
    X_U14.ve     1.455E-11
    X_U14.vlim   7.959E-08
    X_U14.vlp   -4.000E-11
    X_U14.vln   -4.000E-11
    X_U1.vb      1.055E-09
    X_U1.vc      1.477E-11
    X_U1.ve      1.455E-11
    X_U1.vlim   -2.307E-03
    X_U1.vlp    -4.231E-11
    X_U1.vln    -3.770E-11
    X_U7.vb     -2.835E-11
    X_U7.vc      1.397E-11
    X_U7.ve      1.455E-11
    X_U7.vlim    2.616E-05
    X_U7.vlp    -3.997E-11
    X_U7.vln    -4.003E-11

    TOTAL POWER DISSIPATION   5.33E-01  WATTS


**** 02/22/22 16:11:12 ********* PSpice 9.2 (Mar 2000) ******** ID# 0 ********

 * E:\OneDrive - BUET\Tahsin\CODING ZONE\PSPICE Simulation\ALL EXPERIMENTS\EEE 208\OP-AMP\Regulated Variable DC Power Supply Generati


 ****     OPERATING POINT INFORMATION      TEMPERATURE =   27.000 DEG C

 ****     CURRENT STEP                     PARAM VAR1 =   50    


******************************************************************************






**** VOLTAGE-CONTROLLED CURRENT SOURCES


NAME         X_U3.ga     X_U3.gcm    X_U10.ga    X_U10.gcm   X_U12.ga  
I-SOURCE    -3.329E-09  -3.622E-09  -1.501E-05   5.392E-10   1.506E-05

NAME         X_U12.gcm   X_U9.ga     X_U9.gcm    X_U4.ga     X_U4.gcm  
I-SOURCE     5.127E-09  -3.438E-09  -3.467E-09  -3.622E-09  -3.622E-09

NAME         X_U5.ga     X_U5.gcm    X_U6.ga     X_U6.gcm    X_U11.ga  
I-SOURCE    -2.352E-06  -4.773E-08  -3.515E-09  -3.545E-09  -3.654E-09

NAME         X_U11.gcm   X_U14.ga    X_U14.gcm   X_U1.ga     X_U1.gcm  
I-SOURCE    -3.622E-09  -3.622E-09  -3.622E-09  -4.678E-09  -3.622E-09

NAME         X_U7.ga     X_U7.gcm  
I-SOURCE    -3.594E-09  -3.622E-09


**** VOLTAGE-CONTROLLED VOLTAGE SOURCES


NAME         X_U3.egnd   X_U10.egnd  X_U12.egnd  X_U9.egnd   X_U4.egnd 
V-SOURCE     0.000E+00   0.000E+00   0.000E+00   0.000E+00   0.000E+00
I-SOURCE    -1.539E-03   4.061E-02  -4.061E-02  -2.624E-05  -1.880E-07

NAME         X_U5.egnd   X_U6.egnd   X_U11.egnd  X_U14.egnd  X_U1.egnd 
V-SOURCE     7.408E+00   0.000E+00   0.000E+00   0.000E+00   0.000E+00
I-SOURCE     2.434E-02  -3.921E-05   5.195E-05  -1.236E-07   2.307E-03

NAME         X_U7.egnd 
V-SOURCE     0.000E+00
I-SOURCE    -2.620E-05


**** CURRENT-CONTROLLED CURRENT SOURCES


NAME         X_U3.fb     X_U10.fb    X_U12.fb    X_U9.fb     X_U4.fb   
I-SOURCE    -3.084E-03   5.364E-02  -8.063E-02  -2.951E-04  -1.113E-06

NAME         X_U5.fb     X_U6.fb     X_U11.fb    X_U14.fb    X_U1.fb   
I-SOURCE     1.105E-01  -3.140E-04   3.317E-04  -2.013E-07   1.115E-02

NAME         X_U7.fb   
I-SOURCE    -2.948E-04


**** CURRENT-CONTROLLED VOLTAGE SOURCES


NAME         X_U3.hlim   X_U10.hlim  X_U12.hlim  X_U9.hlim   X_U4.hlim 
V-SOURCE     1.539E+00  -4.061E+01   4.061E+01   2.619E-02   1.440E-04
I-SOURCE    -3.078E-12   1.592E-05  -1.597E-05  -5.240E-14  -2.880E-16

NAME         X_U5.hlim   X_U6.hlim   X_U11.hlim  X_U14.hlim  X_U1.hlim 
V-SOURCE    -2.434E+01   3.917E-02  -5.200E-02   7.959E-05  -2.307E+00
I-SOURCE     4.868E-11  -7.834E-14   1.040E-13  -1.592E-16   4.615E-12

NAME         X_U7.hlim 
V-SOURCE     2.616E-02
I-SOURCE    -5.232E-14


**** DIODES


NAME         X_U3.dc     X_U3.de     X_U3.dlp    X_U3.dln    X_U3.dp   
MODEL        X_U3.dy     X_U3.dy     X_U3.dx     X_U3.dx     X_U3.dx   
ID          -1.39E-11   -1.41E-11   -3.85E-11   -4.15E-11   -3.00E-11 
VD          -1.39E+01   -1.41E+01   -3.85E+01   -4.15E+01   -3.00E+01 
REQ          1.00E+12    1.00E+12    1.00E+12    1.00E+12    1.00E+12 
CAP          2.59E-12    2.58E-12    0.00E+00    0.00E+00    0.00E+00 

NAME         X_U10.dc    X_U10.de    X_U10.dlp   X_U10.dln   X_U10.dp  
MODEL        X_U10.dy    X_U10.dy    X_U10.dx    X_U10.dx    X_U10.dx  
ID          -1.33E-11   -1.47E-11   -8.06E-11    1.59E-05   -3.00E-11 
VD          -1.33E+01   -1.47E+01   -8.06E+01    6.13E-01   -3.00E+01 
REQ          1.00E+12    1.00E+12    1.00E+12    1.62E+03    1.00E+12 
CAP          2.65E-12    2.52E-12    0.00E+00    0.00E+00    0.00E+00 

NAME         X_U12.dc    X_U12.de    X_U12.dlp   X_U12.dln   X_U12.dp  
MODEL        X_U12.dy    X_U12.dy    X_U12.dx    X_U12.dx    X_U12.dx  
ID          -1.21E-11   -1.59E-11    1.60E-05   -8.06E-11   -3.00E-11 
VD          -1.21E+01   -1.59E+01    6.13E-01   -8.06E+01   -3.00E+01 
REQ          1.00E+12    1.00E+12    1.62E+03    1.00E+12    1.00E+12 
CAP          2.77E-12    2.43E-12    0.00E+00    0.00E+00    0.00E+00 

NAME         X_U9.dc     X_U9.de     X_U9.dlp    X_U9.dln    X_U9.dp   
MODEL        X_U9.dy     X_U9.dy     X_U9.dx     X_U9.dx     X_U9.dx   
ID          -1.40E-11   -1.40E-11   -4.00E-11   -4.00E-11   -3.00E-11 
VD          -1.40E+01   -1.40E+01   -4.00E+01   -4.00E+01   -3.00E+01 
REQ          1.00E+12    1.00E+12    1.00E+12    1.00E+12    1.00E+12 
CAP          2.58E-12    2.58E-12    0.00E+00    0.00E+00    0.00E+00 

NAME         X_U4.dc     X_U4.de     X_U4.dlp    X_U4.dln    X_U4.dp   
MODEL        X_U4.dy     X_U4.dy     X_U4.dx     X_U4.dx     X_U4.dx   
ID          -1.40E-11   -1.40E-11   -4.00E-11   -4.00E-11   -3.00E-11 
VD          -1.40E+01   -1.40E+01   -4.00E+01   -4.00E+01   -3.00E+01 
REQ          1.00E+12    1.00E+12    1.00E+12    1.00E+12    1.00E+12 
CAP          2.58E-12    2.58E-12    0.00E+00    0.00E+00    0.00E+00 

NAME         X_U5.dc     X_U5.de     X_U5.dlp    X_U5.dln    X_U5.dp   
MODEL        X_U5.dy     X_U5.dy     X_U5.dx     X_U5.dx     X_U5.dx   
ID          -1.40E-11    2.43E-02   -6.43E-11   -1.57E-11   -1.52E-11 
VD          -1.40E+01    8.03E-01   -6.43E+01   -1.57E+01   -1.52E+01 
REQ          1.00E+12    1.06E+00    1.00E+12    1.00E+12    1.00E+12 
CAP          2.58E-12    1.84E-11    0.00E+00    0.00E+00    0.00E+00 

NAME         X_U6.dc     X_U6.de     X_U6.dlp    X_U6.dln    X_U6.dp   
MODEL        X_U6.dy     X_U6.dy     X_U6.dx     X_U6.dx     X_U6.dx   
ID          -1.40E-11   -1.40E-11   -4.00E-11   -4.00E-11   -3.00E-11 
VD          -1.40E+01   -1.40E+01   -4.00E+01   -4.00E+01   -3.00E+01 
REQ          1.00E+12    1.00E+12    1.00E+12    1.00E+12    1.00E+12 
CAP          2.58E-12    2.58E-12    0.00E+00    0.00E+00    0.00E+00 

NAME         X_U11.dc    X_U11.de    X_U11.dlp   X_U11.dln   X_U11.dp  
MODEL        X_U11.dy    X_U11.dy    X_U11.dx    X_U11.dx    X_U11.dx  
ID          -1.40E-11   -1.40E-11   -4.01E-11   -3.99E-11   -3.00E-11 
VD          -1.40E+01   -1.40E+01   -4.01E+01   -3.99E+01   -3.00E+01 
REQ          1.00E+12    1.00E+12    1.00E+12    1.00E+12    1.00E+12 
CAP          2.58E-12    2.58E-12    0.00E+00    0.00E+00    0.00E+00 

NAME         X_U14.dc    X_U14.de    X_U14.dlp   X_U14.dln   X_U14.dp  
MODEL        X_U14.dy    X_U14.dy    X_U14.dx    X_U14.dx    X_U14.dx  
ID          -1.40E-11   -1.40E-11   -4.00E-11   -4.00E-11   -3.00E-11 
VD          -1.40E+01   -1.40E+01   -4.00E+01   -4.00E+01   -3.00E+01 
REQ          1.00E+12    1.00E+12    1.00E+12    1.00E+12    1.00E+12 
CAP          2.58E-12    2.58E-12    0.00E+00    0.00E+00    0.00E+00 

NAME         X_U1.dc     X_U1.de     X_U1.dlp    X_U1.dln    X_U1.dp   
MODEL        X_U1.dy     X_U1.dy     X_U1.dx     X_U1.dx     X_U1.dx   
ID          -1.48E-11   -1.32E-11   -4.23E-11   -3.77E-11   -3.00E-11 
VD          -1.48E+01   -1.32E+01   -4.23E+01   -3.77E+01   -3.00E+01 
REQ          1.00E+12    1.00E+12    1.00E+12    1.00E+12    1.00E+12 
CAP          2.52E-12    2.65E-12    0.00E+00    0.00E+00    0.00E+00 

NAME         X_U7.dc     X_U7.de     X_U7.dlp    X_U7.dln    X_U7.dp   
MODEL        X_U7.dy     X_U7.dy     X_U7.dx     X_U7.dx     X_U7.dx   
ID          -1.40E-11   -1.40E-11   -4.00E-11   -4.00E-11   -3.00E-11 
VD          -1.40E+01   -1.40E+01   -4.00E+01   -4.00E+01   -3.00E+01 
REQ          1.00E+12    1.00E+12    1.00E+12    1.00E+12    1.00E+12 
CAP          2.58E-12    2.58E-12    0.00E+00    0.00E+00    0.00E+00 


**** BIPOLAR JUNCTION TRANSISTORS


NAME         Q_Q1        X_U3.q1     X_U3.q2     X_U10.q1    X_U10.q2  
MODEL        Q2N3904     X_U3.qx     X_U3.qx     X_U10.qx    X_U10.qx  
IB           4.06E-02    7.98E-08    7.97E-08    1.60E-07   -1.50E-11 
IC          -3.98E-02    7.48E-06    7.48E-06    1.50E-05    2.99E-11 
VBE          1.16E+00    5.94E-01    5.94E-01    6.12E-01   -6.43E-02 
VBC          1.20E+00   -1.50E+01   -1.50E+01   -1.42E+01   -1.50E+01 
VCE         -3.91E-02    1.56E+01    1.56E+01    1.48E+01    1.49E+01 
BETADC      -9.81E-01    9.38E+01    9.38E+01    9.38E+01   -2.00E+00 
GM           1.91E-02    2.89E-04    2.89E-04    5.80E-04    2.57E-15 
RPI          1.93E+02    3.24E+05    3.24E+05    1.62E+05    9.35E+13 
RX           1.00E+01    0.00E+00    0.00E+00    0.00E+00    0.00E+00 
RO           1.18E+00    1.00E+12    1.00E+12    1.00E+12    1.00E+12 
CBE          2.25E-10    0.00E+00    0.00E+00    0.00E+00    0.00E+00 
CBC          2.76E-07    0.00E+00    0.00E+00    0.00E+00    0.00E+00 
CJS          0.00E+00    0.00E+00    0.00E+00    0.00E+00    0.00E+00 
BETAAC       3.68E+00    9.38E+01    9.38E+01    9.38E+01    2.40E-01 
CBX/CBX2     0.00E+00    0.00E+00    0.00E+00    0.00E+00    0.00E+00 
FT/FT2       1.10E+04    4.60E+15    4.60E+15    9.23E+15    4.09E+04 



NAME         X_U12.q1    X_U12.q2    X_U9.q1     X_U9.q2     X_U4.q1   
MODEL        X_U12.qx    X_U12.qx    X_U9.qx     X_U9.qx     X_U4.qx   
IB          -1.46E-11    1.61E-07    7.98E-08    7.97E-08    7.98E-08 
IC           2.88E-11    1.51E-05    7.48E-06    7.48E-06    7.48E-06 
VBE         -4.76E-01    6.12E-01    5.94E-01    5.94E-01    5.94E-01 
VBC         -1.46E+01   -1.34E+01   -1.49E+01   -1.49E+01   -1.50E+01 
VCE          1.41E+01    1.40E+01    1.55E+01    1.55E+01    1.56E+01 
BETADC      -1.97E+00    9.38E+01    9.38E+01    9.38E+01    9.38E+01 
GM           0.00E+00    5.82E-04    2.89E-04    2.89E-04    2.89E-04 
RPI          9.38E+13    1.61E+05    3.24E+05    3.24E+05    3.24E+05 
RX           0.00E+00    0.00E+00    0.00E+00    0.00E+00    0.00E+00 
RO           1.00E+12    1.00E+12    1.00E+12    1.00E+12    1.00E+12 
CBE          0.00E+00    0.00E+00    0.00E+00    0.00E+00    0.00E+00 
CBC          0.00E+00    0.00E+00    0.00E+00    0.00E+00    0.00E+00 
CJS          0.00E+00    0.00E+00    0.00E+00    0.00E+00    0.00E+00 
BETAAC       0.00E+00    9.38E+01    9.38E+01    9.38E+01    9.38E+01 
CBX/CBX2     0.00E+00    0.00E+00    0.00E+00    0.00E+00    0.00E+00 
FT/FT2       0.00E+00    9.27E+15    4.60E+15    4.60E+15    4.60E+15 



NAME         X_U4.q2     X_U5.q1     X_U5.q2     X_U6.q1     X_U6.q2   
MODEL        X_U4.qx     X_U5.qx     X_U5.qx     X_U6.qx     X_U6.qx   
IB           7.97E-08    8.93E-08    6.42E-08    7.98E-08    7.97E-08 
IC           7.48E-06    8.38E-06    6.02E-06    7.48E-06    7.48E-06 
VBE          5.94E-01    5.97E-01    5.88E-01    5.94E-01    5.94E-01 
VBC         -1.50E+01   -1.49E+01   -1.50E+01   -1.49E+01   -1.49E+01 
VCE          1.56E+01    1.55E+01    1.56E+01    1.55E+01    1.55E+01 
BETADC       9.38E+01    9.38E+01    9.38E+01    9.38E+01    9.38E+01 
GM           2.89E-04    3.24E-04    2.33E-04    2.89E-04    2.89E-04 
RPI          3.24E+05    2.90E+05    4.03E+05    3.24E+05    3.24E+05 
RX           0.00E+00    0.00E+00    0.00E+00    0.00E+00    0.00E+00 
RO           1.00E+12    1.00E+12    1.00E+12    1.00E+12    1.00E+12 
CBE          0.00E+00    0.00E+00    0.00E+00    0.00E+00    0.00E+00 
CBC          0.00E+00    0.00E+00    0.00E+00    0.00E+00    0.00E+00 
CJS          0.00E+00    0.00E+00    0.00E+00    0.00E+00    0.00E+00 
BETAAC       9.38E+01    9.38E+01    9.38E+01    9.38E+01    9.38E+01 
CBX/CBX2     0.00E+00    0.00E+00    0.00E+00    0.00E+00    0.00E+00 
FT/FT2       4.60E+15    5.15E+15    3.71E+15    4.60E+15    4.60E+15 



NAME         X_U11.q1    X_U11.q2    X_U14.q1    X_U14.q2    X_U1.q1   
MODEL        X_U11.qx    X_U11.qx    X_U14.qx    X_U14.qx    X_U1.qx   
IB           7.98E-08    7.97E-08    7.98E-08    7.97E-08    7.98E-08 
IC           7.48E-06    7.48E-06    7.48E-06    7.48E-06    7.48E-06 
VBE          5.94E-01    5.94E-01    5.94E-01    5.94E-01    5.94E-01 
VBC         -1.50E+01   -1.50E+01   -1.50E+01   -1.50E+01   -1.50E+01 
VCE          1.56E+01    1.56E+01    1.56E+01    1.56E+01    1.56E+01 
BETADC       9.38E+01    9.38E+01    9.38E+01    9.38E+01    9.38E+01 
GM           2.89E-04    2.89E-04    2.89E-04    2.89E-04    2.89E-04 
RPI          3.24E+05    3.24E+05    3.24E+05    3.24E+05    3.24E+05 
RX           0.00E+00    0.00E+00    0.00E+00    0.00E+00    0.00E+00 
RO           1.00E+12    1.00E+12    1.00E+12    1.00E+12    1.00E+12 
CBE          0.00E+00    0.00E+00    0.00E+00    0.00E+00    0.00E+00 
CBC          0.00E+00    0.00E+00    0.00E+00    0.00E+00    0.00E+00 
CJS          0.00E+00    0.00E+00    0.00E+00    0.00E+00    0.00E+00 
BETAAC       9.38E+01    9.38E+01    9.38E+01    9.38E+01    9.38E+01 
CBX/CBX2     0.00E+00    0.00E+00    0.00E+00    0.00E+00    0.00E+00 
FT/FT2       4.60E+15    4.60E+15    4.60E+15    4.60E+15    4.60E+15 



NAME         X_U1.q2     X_U7.q1     X_U7.q2   
MODEL        X_U1.qx     X_U7.qx     X_U7.qx   
IB           7.97E-08    7.98E-08    7.97E-08 
IC           7.47E-06    7.48E-06    7.48E-06 
VBE          5.94E-01    5.94E-01    5.94E-01 
VBC         -1.50E+01   -1.50E+01   -1.50E+01 
VCE          1.56E+01    1.56E+01    1.56E+01 
BETADC       9.38E+01    9.38E+01    9.38E+01 
GM           2.89E-04    2.89E-04    2.89E-04 
RPI          3.24E+05    3.24E+05    3.24E+05 
RX           0.00E+00    0.00E+00    0.00E+00 
RO           1.00E+12    1.00E+12    1.00E+12 
CBE          0.00E+00    0.00E+00    0.00E+00 
CBC          0.00E+00    0.00E+00    0.00E+00 
CJS          0.00E+00    0.00E+00    0.00E+00 
BETAAC       9.38E+01    9.38E+01    9.38E+01 
CBX/CBX2     0.00E+00    0.00E+00    0.00E+00 
FT/FT2       4.60E+15    4.60E+15    4.60E+15 


**** 02/22/22 16:11:12 ********* PSpice 9.2 (Mar 2000) ******** ID# 0 ********

 * E:\OneDrive - BUET\Tahsin\CODING ZONE\PSPICE Simulation\ALL EXPERIMENTS\EEE 208\OP-AMP\Regulated Variable DC Power Supply Generati


 ****     INITIAL TRANSIENT SOLUTION       TEMPERATURE =   27.000 DEG C

 ****     CURRENT STEP                     PARAM VAR1 =   50    


******************************************************************************



 NODE   VOLTAGE     NODE   VOLTAGE     NODE   VOLTAGE     NODE   VOLTAGE


(   V+)   15.0000  (   V-)  -15.0000  (X_U1.6) 105.5E-06 (X_U1.7)    -.8845     

(X_U1.8)    -.8845 (X_U1.9)    0.0000 (X_U3.6)-29.30E-06 (X_U3.7)     .1539     

(X_U3.8)     .1539 (X_U3.9)    0.0000 (X_U4.6)-11.66E-09 (X_U4.7) 106.2E-06     

(X_U4.8) 106.2E-06 (X_U4.9)    0.0000 (X_U5.6)     .2304 (X_U5.7)   -1.2039     

(X_U5.8)   -1.2039 (X_U5.9)    0.0000 (X_U6.6)-3.021E-06 (X_U6.7)     .0281     

(X_U6.8)     .0281 (X_U6.9)    0.0000 (X_U7.6)-2.835E-06 (X_U7.7)     .0274     

(X_U7.8)     .0274 (X_U7.9)    0.0000 (X_U9.6)-2.837E-06 (X_U9.7)     .0274     

(X_U9.8)     .0274 (X_U9.9)    0.0000 ($N_0001) 17.69E-06                       

($N_0002)     .0769                   ($N_0005)     .0261                       

($N_0006)     .7301                   ($N_0009)    1.5000                       

($N_0010)    1.9292                   ($N_0011)     .7692                       

($N_0012)     .3846                   ($N_0015)     .0261                       

($N_0018)    -.1840                   ($N_0019)     .0261                       

($N_0020)     .0130                   ($N_0021) 19.42E-06                       

($N_0022) 99.01E-06                   ($N_0023) 19.25E-06                       

($N_0026)     .0130                   ($N_0031)    -.0260                       

($N_0034)    0.0000                   ($N_0035)    0.0000                       

($N_0036)    0.0000                   ($N_0037) 19.25E-06                       

($N_0040) 24.86E-06                   ($N_0041)    -.7691                       

($N_0044) 19.10E-06                   (X_U1.10)    -.6077                       

(X_U1.11)   14.9600                   (X_U1.12)   14.9600                       

(X_U1.13)    -.5938                   (X_U1.14)    -.5938                       

(X_U1.53)   14.0000                   (X_U1.54)  -14.0000                       

(X_U1.90)   -2.3074                   (X_U1.91)   40.0000                       

(X_U1.92)  -40.0000                   (X_U1.99)    0.0000                       

(X_U10.6)    1.5007                   (X_U10.7)   -1.3006                       

(X_U10.8)   -1.3006                   (X_U10.9)    0.0000                       

(X_U11.6) 3.193E-06                   (X_U11.7)    -.0286                       

(X_U11.8)    -.0286                   (X_U11.9)    0.0000                       

(X_U12.6)   -1.5059                   (X_U12.7)    3.9599                       

(X_U12.8)    3.9599                   (X_U12.9)    0.0000                       

(X_U14.6)-3.221E-09                   (X_U14.7) 23.23E-06                       

(X_U14.8) 23.23E-06                   (X_U14.9)    0.0000                       

(X_U3.10)    -.6077                   (X_U3.11)   14.9600                       

(X_U3.12)   14.9600                   (X_U3.13)    -.5938                       

(X_U3.14)    -.5938                   (X_U3.53)   14.0000                       

(X_U3.54)  -14.0000                   (X_U3.90)    1.5391                       

(X_U3.91)   40.0000                   (X_U3.92)  -40.0000                       

(X_U3.99)    0.0000                   (X_U4.10)    -.6077                       

(X_U4.11)   14.9600                   (X_U4.12)   14.9600                       

(X_U4.13)    -.5938                   (X_U4.14)    -.5938                       

(X_U4.53)   14.0000                   (X_U4.54)  -14.0000                       

(X_U4.90) 144.0E-06                   (X_U4.91)   40.0000                       

(X_U4.92)  -40.0000                   (X_U4.99)    0.0000                       

(X_U5.10)    -.5993                   (X_U5.11)   14.9560                       

(X_U5.12)   14.9680                   (X_U5.13)    -.5837                       

(X_U5.14)    -.5881                   (X_U5.53)   14.0000                       

(X_U5.54)     .8160                   (X_U5.90)  -24.3390                       

(X_U5.91)   40.0000                   (X_U5.92)  -40.0000                       

(X_U5.99)    7.4080                   (X_U6.10)    -.5947                       

(X_U6.11)   14.9600                   (X_U6.12)   14.9600                       

(X_U6.13)    -.5808                   (X_U6.14)    -.5808                       

(X_U6.53)   14.0000                   (X_U6.54)  -14.0000                       

(X_U6.90)     .0392                   (X_U6.91)   40.0000                       

(X_U6.92)  -40.0000                   (X_U6.99)    0.0000                       

(X_U7.10)    -.6077                   (X_U7.11)   14.9600                       

(X_U7.12)   14.9600                   (X_U7.13)    -.5938                       

(X_U7.14)    -.5938                   (X_U7.53)   14.0000                       

(X_U7.54)  -14.0000                   (X_U7.90)     .0262                       

(X_U7.91)   40.0000                   (X_U7.92)  -40.0000                       

(X_U7.99)    0.0000                   (X_U9.10)    -.5816                       

(X_U9.11)   14.9600                   (X_U9.12)   14.9600                       

(X_U9.13)    -.5677                   (X_U9.14)    -.5677                       

(X_U9.53)   14.0000                   (X_U9.54)  -14.0000                       

(X_U9.90)     .0262                   (X_U9.91)   40.0000                       

(X_U9.92)  -40.0000                   (X_U9.99)    0.0000                       

(X_U10.10)     .0905                  (X_U10.11)   14.9200                      

(X_U10.12)   15.0000                  (X_U10.13)     .1183                      

(X_U10.14)     .0905                  (X_U10.53)   14.0000                      

(X_U10.54)  -14.0000                  (X_U10.90)  -40.6130                      

(X_U10.91)   40.0000                  (X_U10.92)  -40.0000                      

(X_U10.99)    0.0000                  (X_U11.10)    -.6077                      

(X_U11.11)   14.9600                  (X_U11.12)   14.9600                      

(X_U11.13)    -.5938                  (X_U11.14)    -.5938                      

(X_U11.53)   14.0000                  (X_U11.54)  -14.0000                      

(X_U11.90)    -.0520                  (X_U11.91)   40.0000                      

(X_U11.92)  -40.0000                  (X_U11.99)    0.0000                      

(X_U12.10)     .8601                  (X_U12.11)   15.0000                      

(X_U12.12)   14.9200                  (X_U12.13)     .8601                      

(X_U12.14)     .8881                  (X_U12.53)   14.0000                      

(X_U12.54)  -14.0000                  (X_U12.90)   40.6130                      

(X_U12.91)   40.0000                  (X_U12.92)  -40.0000                      

(X_U12.99)    0.0000                  (X_U14.10)    -.6077                      

(X_U14.11)   14.9600                  (X_U14.12)   14.9600                      

(X_U14.13)    -.5938                  (X_U14.14)    -.5938                      

(X_U14.53)   14.0000                  (X_U14.54)  -14.0000                      

(X_U14.90) 79.60E-06                  (X_U14.91)   40.0000                      

(X_U14.92)  -40.0000                  (X_U14.99)    0.0000                  




    VOLTAGE SOURCE CURRENTS
    NAME         CURRENT

    V_V4        -7.700E-04
    V_V2        -1.667E-02
    V_V3        -1.752E-02
    V_V1         2.349E-02
    V_V6         0.000E+00
    X_U3.vb     -2.930E-10
    X_U3.vc      1.392E-11
    X_U3.ve      1.440E-11
    X_U3.vlim    1.539E-03
    X_U3.vlp    -3.846E-11
    X_U3.vln    -4.154E-11
    X_U10.vb     1.501E-05
    X_U10.vc     1.327E-11
    X_U10.ve     1.455E-11
    X_U10.vlim  -4.061E-02
    X_U10.vlp   -8.061E-11
    X_U10.vln    1.592E-05
    X_U12.vb    -1.506E-05
    X_U12.vc     1.207E-11
    X_U12.ve     1.637E-11
    X_U12.vlim   4.061E-02
    X_U12.vlp    1.597E-05
    X_U12.vln   -8.062E-11
    X_U9.vb     -2.837E-11
    X_U9.vc      1.397E-11
    X_U9.ve      1.455E-11
    X_U9.vlim    2.619E-05
    X_U9.vlp    -3.997E-11
    X_U9.vln    -4.003E-11
    X_U4.vb     -1.166E-13
    X_U4.vc      1.400E-11
    X_U4.ve      1.455E-11
    X_U4.vlim    1.440E-07
    X_U4.vlp    -4.000E-11
    X_U4.vln    -4.000E-11
    X_U5.vb      2.304E-06
    X_U5.vc      1.399E-11
    X_U5.ve     -2.434E-02
    X_U5.vlim   -2.434E-02
    X_U5.vlp    -6.434E-11
    X_U5.vln    -1.566E-11
    X_U6.vb     -3.021E-11
    X_U6.vc      1.397E-11
    X_U6.ve      1.455E-11
    X_U6.vlim    3.917E-05
    X_U6.vlp    -3.996E-11
    X_U6.vln    -4.004E-11
    X_U11.vb     3.193E-11
    X_U11.vc     1.403E-11
    X_U11.ve     1.455E-11
    X_U11.vlim  -5.200E-05
    X_U11.vlp   -4.005E-11
    X_U11.vln   -3.995E-11
    X_U14.vb    -3.220E-14
    X_U14.vc     1.400E-11
    X_U14.ve     1.455E-11
    X_U14.vlim   7.960E-08
    X_U14.vlp   -4.000E-11
    X_U14.vln   -4.000E-11
    X_U1.vb      1.055E-09
    X_U1.vc      1.477E-11
    X_U1.ve      1.455E-11
    X_U1.vlim   -2.307E-03
    X_U1.vlp    -4.231E-11
    X_U1.vln    -3.770E-11
    X_U7.vb     -2.835E-11
    X_U7.vc      1.397E-11
    X_U7.ve      1.455E-11
    X_U7.vlim    2.616E-05
    X_U7.vlp    -3.997E-11
    X_U7.vln    -4.003E-11

    TOTAL POWER DISSIPATION   5.33E-01  WATTS


**** 02/22/22 16:11:12 ********* PSpice 9.2 (Mar 2000) ******** ID# 0 ********

 * E:\OneDrive - BUET\Tahsin\CODING ZONE\PSPICE Simulation\ALL EXPERIMENTS\EEE 208\OP-AMP\Regulated Variable DC Power Supply Generati


 ****     SMALL SIGNAL BIAS SOLUTION       TEMPERATURE =   27.000 DEG C

 ****     CURRENT STEP                     PARAM VAR1 =  150   


******************************************************************************



 NODE   VOLTAGE     NODE   VOLTAGE     NODE   VOLTAGE     NODE   VOLTAGE


(   V+)   15.0000  (   V-)  -15.0000  (X_U1.6) 105.5E-06 (X_U1.7)    -.8845     

(X_U1.8)    -.8845 (X_U1.9)    0.0000 (X_U3.6)-43.82E-06 (X_U3.7)     .3078     

(X_U3.8)     .3078 (X_U3.9)    0.0000 (X_U4.6)-11.66E-09 (X_U4.7) 106.2E-06     

(X_U4.8) 106.2E-06 (X_U4.9)    0.0000 (X_U5.6)     .2304 (X_U5.7)   -1.2039     

(X_U5.8)   -1.2039 (X_U5.9)    0.0000 (X_U6.6)-3.021E-06 (X_U6.7)     .0281     

(X_U6.8)     .0281 (X_U6.9)    0.0000 (X_U7.6)-2.835E-06 (X_U7.7)     .0274     

(X_U7.8)     .0274 (X_U7.9)    0.0000 (X_U9.6)-2.837E-06 (X_U9.7)     .0274     

(X_U9.8)     .0274 (X_U9.9)    0.0000 ($N_0001) 16.92E-06                       

($N_0002)     .2308                   ($N_0005)     .0261                       

($N_0006)     .7301                   ($N_0009)    1.5000                       

($N_0010)    1.9292                   ($N_0011)     .7692                       

($N_0012)     .3846                   ($N_0015)     .0261                       

($N_0018)    -.1840                   ($N_0019)     .0261                       

($N_0020)     .0130                   ($N_0021) 19.42E-06                       

($N_0022) 99.01E-06                   ($N_0023) 19.25E-06                       

($N_0026)     .0130                   ($N_0031)    -.0260                       

($N_0034)    0.0000                   ($N_0035)    0.0000                       

($N_0036)    0.0000                   ($N_0037) 19.25E-06                       

($N_0040) 24.86E-06                   ($N_0041)    -.7691                       

($N_0044) 19.10E-06                   (X_U1.10)    -.6077                       

(X_U1.11)   14.9600                   (X_U1.12)   14.9600                       

(X_U1.13)    -.5938                   (X_U1.14)    -.5938                       

(X_U1.53)   14.0000                   (X_U1.54)  -14.0000                       

(X_U1.90)   -2.3074                   (X_U1.91)   40.0000                       

(X_U1.92)  -40.0000                   (X_U1.99)    0.0000                       

(X_U10.6)    1.5007                   (X_U10.7)   -1.3006                       

(X_U10.8)   -1.3006                   (X_U10.9)    0.0000                       

(X_U11.6) 3.193E-06                   (X_U11.7)    -.0286                       

(X_U11.8)    -.0286                   (X_U11.9)    0.0000                       

(X_U12.6)   -1.5059                   (X_U12.7)    3.9599                       

(X_U12.8)    3.9599                   (X_U12.9)    0.0000                       

(X_U14.6)-3.221E-09                   (X_U14.7) 23.23E-06                       

(X_U14.8) 23.23E-06                   (X_U14.9)    0.0000                       

(X_U3.10)    -.6077                   (X_U3.11)   14.9600                       

(X_U3.12)   14.9600                   (X_U3.13)    -.5938                       

(X_U3.14)    -.5938                   (X_U3.53)   14.0000                       

(X_U3.54)  -14.0000                   (X_U3.90)    1.5406                       

(X_U3.91)   40.0000                   (X_U3.92)  -40.0000                       

(X_U3.99)    0.0000                   (X_U4.10)    -.6077                       

(X_U4.11)   14.9600                   (X_U4.12)   14.9600                       

(X_U4.13)    -.5938                   (X_U4.14)    -.5938                       

(X_U4.53)   14.0000                   (X_U4.54)  -14.0000                       

(X_U4.90) 144.0E-06                   (X_U4.91)   40.0000                       

(X_U4.92)  -40.0000                   (X_U4.99)    0.0000                       

(X_U5.10)    -.5993                   (X_U5.11)   14.9560                       

(X_U5.12)   14.9680                   (X_U5.13)    -.5837                       

(X_U5.14)    -.5881                   (X_U5.53)   14.0000                       

(X_U5.54)     .8160                   (X_U5.90)  -24.3390                       

(X_U5.91)   40.0000                   (X_U5.92)  -40.0000                       

(X_U5.99)    7.4080                   (X_U6.10)    -.5947                       

(X_U6.11)   14.9600                   (X_U6.12)   14.9600                       

(X_U6.13)    -.5808                   (X_U6.14)    -.5808                       

(X_U6.53)   14.0000                   (X_U6.54)  -14.0000                       

(X_U6.90)     .0392                   (X_U6.91)   40.0000                       

(X_U6.92)  -40.0000                   (X_U6.99)    0.0000                       

(X_U7.10)    -.6077                   (X_U7.11)   14.9600                       

(X_U7.12)   14.9600                   (X_U7.13)    -.5938                       

(X_U7.14)    -.5938                   (X_U7.53)   14.0000                       

(X_U7.54)  -14.0000                   (X_U7.90)     .0262                       

(X_U7.91)   40.0000                   (X_U7.92)  -40.0000                       

(X_U7.99)    0.0000                   (X_U9.10)    -.5816                       

(X_U9.11)   14.9600                   (X_U9.12)   14.9600                       

(X_U9.13)    -.5677                   (X_U9.14)    -.5677                       

(X_U9.53)   14.0000                   (X_U9.54)  -14.0000                       

(X_U9.90)     .0262                   (X_U9.91)   40.0000                       

(X_U9.92)  -40.0000                   (X_U9.99)    0.0000                       

(X_U10.10)     .0905                  (X_U10.11)   14.9200                      

(X_U10.12)   15.0000                  (X_U10.13)     .1183                      

(X_U10.14)     .0905                  (X_U10.53)   14.0000                      

(X_U10.54)  -14.0000                  (X_U10.90)  -40.6130                      

(X_U10.91)   40.0000                  (X_U10.92)  -40.0000                      

(X_U10.99)    0.0000                  (X_U11.10)    -.6077                      

(X_U11.11)   14.9600                  (X_U11.12)   14.9600                      

(X_U11.13)    -.5938                  (X_U11.14)    -.5938                      

(X_U11.53)   14.0000                  (X_U11.54)  -14.0000                      

(X_U11.90)    -.0520                  (X_U11.91)   40.0000                      

(X_U11.92)  -40.0000                  (X_U11.99)    0.0000                      

(X_U12.10)     .8601                  (X_U12.11)   15.0000                      

(X_U12.12)   14.9200                  (X_U12.13)     .8601                      

(X_U12.14)     .8881                  (X_U12.53)   14.0000                      

(X_U12.54)  -14.0000                  (X_U12.90)   40.6130                      

(X_U12.91)   40.0000                  (X_U12.92)  -40.0000                      

(X_U12.99)    0.0000                  (X_U14.10)    -.6077                      

(X_U14.11)   14.9600                  (X_U14.12)   14.9600                      

(X_U14.13)    -.5938                  (X_U14.14)    -.5938                      

(X_U14.53)   14.0000                  (X_U14.54)  -14.0000                      

(X_U14.90) 79.59E-06                  (X_U14.91)   40.0000                      

(X_U14.92)  -40.0000                  (X_U14.99)    0.0000                  




    VOLTAGE SOURCE CURRENTS
    NAME         CURRENT

    V_V4        -7.700E-04
    V_V2        -1.667E-02
    V_V3        -1.752E-02
    V_V1         2.349E-02
    V_V6         0.000E+00
    X_U3.vb     -4.382E-10
    X_U3.vc      1.377E-11
    X_U3.ve      1.456E-11
    X_U3.vlim    1.541E-03
    X_U3.vlp    -3.846E-11
    X_U3.vln    -4.154E-11
    X_U10.vb     1.501E-05
    X_U10.vc     1.327E-11
    X_U10.ve     1.455E-11
    X_U10.vlim  -4.061E-02
    X_U10.vlp   -8.061E-11
    X_U10.vln    1.592E-05
    X_U12.vb    -1.506E-05
    X_U12.vc     1.207E-11
    X_U12.ve     1.637E-11
    X_U12.vlim   4.061E-02
    X_U12.vlp    1.597E-05
    X_U12.vln   -8.062E-11
    X_U9.vb     -2.837E-11
    X_U9.vc      1.397E-11
    X_U9.ve      1.455E-11
    X_U9.vlim    2.619E-05
    X_U9.vlp    -3.997E-11
    X_U9.vln    -4.003E-11
    X_U4.vb     -1.166E-13
    X_U4.vc      1.400E-11
    X_U4.ve      1.455E-11
    X_U4.vlim    1.440E-07
    X_U4.vlp    -4.000E-11
    X_U4.vln    -4.000E-11
    X_U5.vb      2.304E-06
    X_U5.vc      1.399E-11
    X_U5.ve     -2.434E-02
    X_U5.vlim   -2.434E-02
    X_U5.vlp    -6.434E-11
    X_U5.vln    -1.566E-11
    X_U6.vb     -3.021E-11
    X_U6.vc      1.397E-11
    X_U6.ve      1.455E-11
    X_U6.vlim    3.917E-05
    X_U6.vlp    -3.996E-11
    X_U6.vln    -4.004E-11
    X_U11.vb     3.193E-11
    X_U11.vc     1.403E-11
    X_U11.ve     1.455E-11
    X_U11.vlim  -5.200E-05
    X_U11.vlp   -4.005E-11
    X_U11.vln   -3.995E-11
    X_U14.vb    -3.220E-14
    X_U14.vc     1.400E-11
    X_U14.ve     1.455E-11
    X_U14.vlim   7.959E-08
    X_U14.vlp   -4.000E-11
    X_U14.vln   -4.000E-11
    X_U1.vb      1.055E-09
    X_U1.vc      1.477E-11
    X_U1.ve      1.455E-11
    X_U1.vlim   -2.307E-03
    X_U1.vlp    -4.231E-11
    X_U1.vln    -3.770E-11
    X_U7.vb     -2.835E-11
    X_U7.vc      1.397E-11
    X_U7.ve      1.455E-11
    X_U7.vlim    2.616E-05
    X_U7.vlp    -3.997E-11
    X_U7.vln    -4.003E-11

    TOTAL POWER DISSIPATION   5.33E-01  WATTS


**** 02/22/22 16:11:12 ********* PSpice 9.2 (Mar 2000) ******** ID# 0 ********

 * E:\OneDrive - BUET\Tahsin\CODING ZONE\PSPICE Simulation\ALL EXPERIMENTS\EEE 208\OP-AMP\Regulated Variable DC Power Supply Generati


 ****     OPERATING POINT INFORMATION      TEMPERATURE =   27.000 DEG C

 ****     CURRENT STEP                     PARAM VAR1 =  150   


******************************************************************************






**** VOLTAGE-CONTROLLED CURRENT SOURCES


NAME         X_U3.ga     X_U3.gcm    X_U10.ga    X_U10.gcm   X_U12.ga  
I-SOURCE    -3.184E-09  -3.622E-09  -1.501E-05   5.392E-10   1.506E-05

NAME         X_U12.gcm   X_U9.ga     X_U9.gcm    X_U4.ga     X_U4.gcm  
I-SOURCE     5.127E-09  -3.438E-09  -3.467E-09  -3.622E-09  -3.622E-09

NAME         X_U5.ga     X_U5.gcm    X_U6.ga     X_U6.gcm    X_U11.ga  
I-SOURCE    -2.352E-06  -4.773E-08  -3.515E-09  -3.545E-09  -3.654E-09

NAME         X_U11.gcm   X_U14.ga    X_U14.gcm   X_U1.ga     X_U1.gcm  
I-SOURCE    -3.622E-09  -3.622E-09  -3.622E-09  -4.678E-09  -3.622E-09

NAME         X_U7.ga     X_U7.gcm  
I-SOURCE    -3.594E-09  -3.622E-09


**** VOLTAGE-CONTROLLED VOLTAGE SOURCES


NAME         X_U3.egnd   X_U10.egnd  X_U12.egnd  X_U9.egnd   X_U4.egnd 
V-SOURCE     0.000E+00   0.000E+00   0.000E+00   0.000E+00   0.000E+00
I-SOURCE    -1.541E-03   4.061E-02  -4.061E-02  -2.624E-05  -1.901E-07

NAME         X_U5.egnd   X_U6.egnd   X_U11.egnd  X_U14.egnd  X_U1.egnd 
V-SOURCE     7.408E+00   0.000E+00   0.000E+00   0.000E+00   0.000E+00
I-SOURCE     2.434E-02  -3.921E-05   5.195E-05  -1.257E-07   2.307E-03

NAME         X_U7.egnd 
V-SOURCE     0.000E+00
I-SOURCE    -2.620E-05


**** CURRENT-CONTROLLED CURRENT SOURCES


NAME         X_U3.fb     X_U10.fb    X_U12.fb    X_U9.fb     X_U4.fb   
I-SOURCE    -4.619E-03   5.365E-02  -8.021E-02  -3.006E-04  -1.372E-06

NAME         X_U5.fb     X_U6.fb     X_U11.fb    X_U14.fb    X_U1.fb   
I-SOURCE     1.105E-01  -3.199E-04   3.376E-04  -4.779E-07   1.115E-02

NAME         X_U7.fb   
I-SOURCE    -3.004E-04


**** CURRENT-CONTROLLED VOLTAGE SOURCES


NAME         X_U3.hlim   X_U10.hlim  X_U12.hlim  X_U9.hlim   X_U4.hlim 
V-SOURCE     1.541E+00  -4.061E+01   4.061E+01   2.619E-02   1.440E-04
I-SOURCE    -3.082E-12   1.592E-05  -1.597E-05  -5.239E-14  -2.880E-16

NAME         X_U5.hlim   X_U6.hlim   X_U11.hlim  X_U14.hlim  X_U1.hlim 
V-SOURCE    -2.434E+01   3.917E-02  -5.200E-02   7.959E-05  -2.307E+00
I-SOURCE     4.868E-11  -7.834E-14   1.040E-13  -1.592E-16   4.615E-12

NAME         X_U7.hlim 
V-SOURCE     2.616E-02
I-SOURCE    -5.232E-14


**** DIODES


NAME         X_U3.dc     X_U3.de     X_U3.dlp    X_U3.dln    X_U3.dp   
MODEL        X_U3.dy     X_U3.dy     X_U3.dx     X_U3.dx     X_U3.dx   
ID          -1.38E-11   -1.42E-11   -3.85E-11   -4.15E-11   -3.00E-11 
VD          -1.38E+01   -1.42E+01   -3.85E+01   -4.15E+01   -3.00E+01 
REQ          1.00E+12    1.00E+12    1.00E+12    1.00E+12    1.00E+12 
CAP          2.60E-12    2.56E-12    0.00E+00    0.00E+00    0.00E+00 

NAME         X_U10.dc    X_U10.de    X_U10.dlp   X_U10.dln   X_U10.dp  
MODEL        X_U10.dy    X_U10.dy    X_U10.dx    X_U10.dx    X_U10.dx  
ID          -1.33E-11   -1.47E-11   -8.06E-11    1.59E-05   -3.00E-11 
VD          -1.33E+01   -1.47E+01   -8.06E+01    6.13E-01   -3.00E+01 
REQ          1.00E+12    1.00E+12    1.00E+12    1.62E+03    1.00E+12 
CAP          2.65E-12    2.52E-12    0.00E+00    0.00E+00    0.00E+00 

NAME         X_U12.dc    X_U12.de    X_U12.dlp   X_U12.dln   X_U12.dp  
MODEL        X_U12.dy    X_U12.dy    X_U12.dx    X_U12.dx    X_U12.dx  
ID          -1.21E-11   -1.59E-11    1.60E-05   -8.06E-11   -3.00E-11 
VD          -1.21E+01   -1.59E+01    6.13E-01   -8.06E+01   -3.00E+01 
REQ          1.00E+12    1.00E+12    1.62E+03    1.00E+12    1.00E+12 
CAP          2.77E-12    2.43E-12    0.00E+00    0.00E+00    0.00E+00 

NAME         X_U9.dc     X_U9.de     X_U9.dlp    X_U9.dln    X_U9.dp   
MODEL        X_U9.dy     X_U9.dy     X_U9.dx     X_U9.dx     X_U9.dx   
ID          -1.40E-11   -1.40E-11   -4.00E-11   -4.00E-11   -3.00E-11 
VD          -1.40E+01   -1.40E+01   -4.00E+01   -4.00E+01   -3.00E+01 
REQ          1.00E+12    1.00E+12    1.00E+12    1.00E+12    1.00E+12 
CAP          2.58E-12    2.58E-12    0.00E+00    0.00E+00    0.00E+00 

NAME         X_U4.dc     X_U4.de     X_U4.dlp    X_U4.dln    X_U4.dp   
MODEL        X_U4.dy     X_U4.dy     X_U4.dx     X_U4.dx     X_U4.dx   
ID          -1.40E-11   -1.40E-11   -4.00E-11   -4.00E-11   -3.00E-11 
VD          -1.40E+01   -1.40E+01   -4.00E+01   -4.00E+01   -3.00E+01 
REQ          1.00E+12    1.00E+12    1.00E+12    1.00E+12    1.00E+12 
CAP          2.58E-12    2.58E-12    0.00E+00    0.00E+00    0.00E+00 

NAME         X_U5.dc     X_U5.de     X_U5.dlp    X_U5.dln    X_U5.dp   
MODEL        X_U5.dy     X_U5.dy     X_U5.dx     X_U5.dx     X_U5.dx   
ID          -1.40E-11    2.43E-02   -6.43E-11   -1.57E-11   -1.52E-11 
VD          -1.40E+01    8.03E-01   -6.43E+01   -1.57E+01   -1.52E+01 
REQ          1.00E+12    1.06E+00    1.00E+12    1.00E+12    1.00E+12 
CAP          2.58E-12    1.84E-11    0.00E+00    0.00E+00    0.00E+00 

NAME         X_U6.dc     X_U6.de     X_U6.dlp    X_U6.dln    X_U6.dp   
MODEL        X_U6.dy     X_U6.dy     X_U6.dx     X_U6.dx     X_U6.dx   
ID          -1.40E-11   -1.40E-11   -4.00E-11   -4.00E-11   -3.00E-11 
VD          -1.40E+01   -1.40E+01   -4.00E+01   -4.00E+01   -3.00E+01 
REQ          1.00E+12    1.00E+12    1.00E+12    1.00E+12    1.00E+12 
CAP          2.58E-12    2.58E-12    0.00E+00    0.00E+00    0.00E+00 

NAME         X_U11.dc    X_U11.de    X_U11.dlp   X_U11.dln   X_U11.dp  
MODEL        X_U11.dy    X_U11.dy    X_U11.dx    X_U11.dx    X_U11.dx  
ID          -1.40E-11   -1.40E-11   -4.01E-11   -3.99E-11   -3.00E-11 
VD          -1.40E+01   -1.40E+01   -4.01E+01   -3.99E+01   -3.00E+01 
REQ          1.00E+12    1.00E+12    1.00E+12    1.00E+12    1.00E+12 
CAP          2.58E-12    2.58E-12    0.00E+00    0.00E+00    0.00E+00 

NAME         X_U14.dc    X_U14.de    X_U14.dlp   X_U14.dln   X_U14.dp  
MODEL        X_U14.dy    X_U14.dy    X_U14.dx    X_U14.dx    X_U14.dx  
ID          -1.40E-11   -1.40E-11   -4.00E-11   -4.00E-11   -3.00E-11 
VD          -1.40E+01   -1.40E+01   -4.00E+01   -4.00E+01   -3.00E+01 
REQ          1.00E+12    1.00E+12    1.00E+12    1.00E+12    1.00E+12 
CAP          2.58E-12    2.58E-12    0.00E+00    0.00E+00    0.00E+00 

NAME         X_U1.dc     X_U1.de     X_U1.dlp    X_U1.dln    X_U1.dp   
MODEL        X_U1.dy     X_U1.dy     X_U1.dx     X_U1.dx     X_U1.dx   
ID          -1.48E-11   -1.32E-11   -4.23E-11   -3.77E-11   -3.00E-11 
VD          -1.48E+01   -1.32E+01   -4.23E+01   -3.77E+01   -3.00E+01 
REQ          1.00E+12    1.00E+12    1.00E+12    1.00E+12    1.00E+12 
CAP          2.52E-12    2.65E-12    0.00E+00    0.00E+00    0.00E+00 

NAME         X_U7.dc     X_U7.de     X_U7.dlp    X_U7.dln    X_U7.dp   
MODEL        X_U7.dy     X_U7.dy     X_U7.dx     X_U7.dx     X_U7.dx   
ID          -1.40E-11   -1.40E-11   -4.00E-11   -4.00E-11   -3.00E-11 
VD          -1.40E+01   -1.40E+01   -4.00E+01   -4.00E+01   -3.00E+01 
REQ          1.00E+12    1.00E+12    1.00E+12    1.00E+12    1.00E+12 
CAP          2.58E-12    2.58E-12    0.00E+00    0.00E+00    0.00E+00 


**** BIPOLAR JUNCTION TRANSISTORS


NAME         Q_Q1        X_U3.q1     X_U3.q2     X_U10.q1    X_U10.q2  
MODEL        Q2N3904     X_U3.qx     X_U3.qx     X_U10.qx    X_U10.qx  
IB           4.06E-02    7.98E-08    7.97E-08    1.60E-07   -1.50E-11 
IC          -3.98E-02    7.48E-06    7.48E-06    1.50E-05    2.99E-11 
VBE          1.16E+00    5.94E-01    5.94E-01    6.12E-01   -6.43E-02 
VBC          1.20E+00   -1.50E+01   -1.50E+01   -1.42E+01   -1.50E+01 
VCE         -3.91E-02    1.56E+01    1.56E+01    1.48E+01    1.49E+01 
BETADC      -9.81E-01    9.38E+01    9.38E+01    9.38E+01   -2.00E+00 
GM           1.91E-02    2.89E-04    2.89E-04    5.80E-04    2.57E-15 
RPI          1.93E+02    3.24E+05    3.24E+05    1.62E+05    9.35E+13 
RX           1.00E+01    0.00E+00    0.00E+00    0.00E+00    0.00E+00 
RO           1.18E+00    1.00E+12    1.00E+12    1.00E+12    1.00E+12 
CBE          2.25E-10    0.00E+00    0.00E+00    0.00E+00    0.00E+00 
CBC          2.76E-07    0.00E+00    0.00E+00    0.00E+00    0.00E+00 
CJS          0.00E+00    0.00E+00    0.00E+00    0.00E+00    0.00E+00 
BETAAC       3.68E+00    9.38E+01    9.38E+01    9.38E+01    2.40E-01 
CBX/CBX2     0.00E+00    0.00E+00    0.00E+00    0.00E+00    0.00E+00 
FT/FT2       1.10E+04    4.60E+15    4.60E+15    9.23E+15    4.09E+04 



NAME         X_U12.q1    X_U12.q2    X_U9.q1     X_U9.q2     X_U4.q1   
MODEL        X_U12.qx    X_U12.qx    X_U9.qx     X_U9.qx     X_U4.qx   
IB          -1.46E-11    1.61E-07    7.98E-08    7.97E-08    7.98E-08 
IC           2.88E-11    1.51E-05    7.48E-06    7.48E-06    7.48E-06 
VBE         -4.76E-01    6.12E-01    5.94E-01    5.94E-01    5.94E-01 
VBC         -1.46E+01   -1.34E+01   -1.49E+01   -1.49E+01   -1.50E+01 
VCE          1.41E+01    1.40E+01    1.55E+01    1.55E+01    1.56E+01 
BETADC      -1.97E+00    9.38E+01    9.38E+01    9.38E+01    9.38E+01 
GM           0.00E+00    5.82E-04    2.89E-04    2.89E-04    2.89E-04 
RPI          9.38E+13    1.61E+05    3.24E+05    3.24E+05    3.24E+05 
RX           0.00E+00    0.00E+00    0.00E+00    0.00E+00    0.00E+00 
RO           1.00E+12    1.00E+12    1.00E+12    1.00E+12    1.00E+12 
CBE          0.00E+00    0.00E+00    0.00E+00    0.00E+00    0.00E+00 
CBC          0.00E+00    0.00E+00    0.00E+00    0.00E+00    0.00E+00 
CJS          0.00E+00    0.00E+00    0.00E+00    0.00E+00    0.00E+00 
BETAAC       0.00E+00    9.38E+01    9.38E+01    9.38E+01    9.38E+01 
CBX/CBX2     0.00E+00    0.00E+00    0.00E+00    0.00E+00    0.00E+00 
FT/FT2       0.00E+00    9.27E+15    4.60E+15    4.60E+15    4.60E+15 



NAME         X_U4.q2     X_U5.q1     X_U5.q2     X_U6.q1     X_U6.q2   
MODEL        X_U4.qx     X_U5.qx     X_U5.qx     X_U6.qx     X_U6.qx   
IB           7.97E-08    8.93E-08    6.42E-08    7.98E-08    7.97E-08 
IC           7.48E-06    8.38E-06    6.02E-06    7.48E-06    7.48E-06 
VBE          5.94E-01    5.97E-01    5.88E-01    5.94E-01    5.94E-01 
VBC         -1.50E+01   -1.49E+01   -1.50E+01   -1.49E+01   -1.49E+01 
VCE          1.56E+01    1.55E+01    1.56E+01    1.55E+01    1.55E+01 
BETADC       9.38E+01    9.38E+01    9.38E+01    9.38E+01    9.38E+01 
GM           2.89E-04    3.24E-04    2.33E-04    2.89E-04    2.89E-04 
RPI          3.24E+05    2.90E+05    4.03E+05    3.24E+05    3.24E+05 
RX           0.00E+00    0.00E+00    0.00E+00    0.00E+00    0.00E+00 
RO           1.00E+12    1.00E+12    1.00E+12    1.00E+12    1.00E+12 
CBE          0.00E+00    0.00E+00    0.00E+00    0.00E+00    0.00E+00 
CBC          0.00E+00    0.00E+00    0.00E+00    0.00E+00    0.00E+00 
CJS          0.00E+00    0.00E+00    0.00E+00    0.00E+00    0.00E+00 
BETAAC       9.38E+01    9.38E+01    9.38E+01    9.38E+01    9.38E+01 
CBX/CBX2     0.00E+00    0.00E+00    0.00E+00    0.00E+00    0.00E+00 
FT/FT2       4.60E+15    5.15E+15    3.71E+15    4.60E+15    4.60E+15 



NAME         X_U11.q1    X_U11.q2    X_U14.q1    X_U14.q2    X_U1.q1   
MODEL        X_U11.qx    X_U11.qx    X_U14.qx    X_U14.qx    X_U1.qx   
IB           7.98E-08    7.97E-08    7.98E-08    7.97E-08    7.98E-08 
IC           7.48E-06    7.48E-06    7.48E-06    7.48E-06    7.48E-06 
VBE          5.94E-01    5.94E-01    5.94E-01    5.94E-01    5.94E-01 
VBC         -1.50E+01   -1.50E+01   -1.50E+01   -1.50E+01   -1.50E+01 
VCE          1.56E+01    1.56E+01    1.56E+01    1.56E+01    1.56E+01 
BETADC       9.38E+01    9.38E+01    9.38E+01    9.38E+01    9.38E+01 
GM           2.89E-04    2.89E-04    2.89E-04    2.89E-04    2.89E-04 
RPI          3.24E+05    3.24E+05    3.24E+05    3.24E+05    3.24E+05 
RX           0.00E+00    0.00E+00    0.00E+00    0.00E+00    0.00E+00 
RO           1.00E+12    1.00E+12    1.00E+12    1.00E+12    1.00E+12 
CBE          0.00E+00    0.00E+00    0.00E+00    0.00E+00    0.00E+00 
CBC          0.00E+00    0.00E+00    0.00E+00    0.00E+00    0.00E+00 
CJS          0.00E+00    0.00E+00    0.00E+00    0.00E+00    0.00E+00 
BETAAC       9.38E+01    9.38E+01    9.38E+01    9.38E+01    9.38E+01 
CBX/CBX2     0.00E+00    0.00E+00    0.00E+00    0.00E+00    0.00E+00 
FT/FT2       4.60E+15    4.60E+15    4.60E+15    4.60E+15    4.60E+15 



NAME         X_U1.q2     X_U7.q1     X_U7.q2   
MODEL        X_U1.qx     X_U7.qx     X_U7.qx   
IB           7.97E-08    7.98E-08    7.97E-08 
IC           7.47E-06    7.48E-06    7.48E-06 
VBE          5.94E-01    5.94E-01    5.94E-01 
VBC         -1.50E+01   -1.50E+01   -1.50E+01 
VCE          1.56E+01    1.56E+01    1.56E+01 
BETADC       9.38E+01    9.38E+01    9.38E+01 
GM           2.89E-04    2.89E-04    2.89E-04 
RPI          3.24E+05    3.24E+05    3.24E+05 
RX           0.00E+00    0.00E+00    0.00E+00 
RO           1.00E+12    1.00E+12    1.00E+12 
CBE          0.00E+00    0.00E+00    0.00E+00 
CBC          0.00E+00    0.00E+00    0.00E+00 
CJS          0.00E+00    0.00E+00    0.00E+00 
BETAAC       9.38E+01    9.38E+01    9.38E+01 
CBX/CBX2     0.00E+00    0.00E+00    0.00E+00 
FT/FT2       4.60E+15    4.60E+15    4.60E+15 


**** 02/22/22 16:11:12 ********* PSpice 9.2 (Mar 2000) ******** ID# 0 ********

 * E:\OneDrive - BUET\Tahsin\CODING ZONE\PSPICE Simulation\ALL EXPERIMENTS\EEE 208\OP-AMP\Regulated Variable DC Power Supply Generati


 ****     INITIAL TRANSIENT SOLUTION       TEMPERATURE =   27.000 DEG C

 ****     CURRENT STEP                     PARAM VAR1 =  150   


******************************************************************************



 NODE   VOLTAGE     NODE   VOLTAGE     NODE   VOLTAGE     NODE   VOLTAGE


(   V+)   15.0000  (   V-)  -15.0000  (X_U1.6) 105.5E-06 (X_U1.7)    -.8845     

(X_U1.8)    -.8845 (X_U1.9)    0.0000 (X_U3.6)-43.82E-06 (X_U3.7)     .3078     

(X_U3.8)     .3078 (X_U3.9)    0.0000 (X_U4.6)-11.66E-09 (X_U4.7) 106.2E-06     

(X_U4.8) 106.2E-06 (X_U4.9)    0.0000 (X_U5.6)     .2304 (X_U5.7)   -1.2039     

(X_U5.8)   -1.2039 (X_U5.9)    0.0000 (X_U6.6)-3.021E-06 (X_U6.7)     .0281     

(X_U6.8)     .0281 (X_U6.9)    0.0000 (X_U7.6)-2.835E-06 (X_U7.7)     .0274     

(X_U7.8)     .0274 (X_U7.9)    0.0000 (X_U9.6)-2.837E-06 (X_U9.7)     .0274     

(X_U9.8)     .0274 (X_U9.9)    0.0000 ($N_0001) 16.92E-06                       

($N_0002)     .2308                   ($N_0005)     .0261                       

($N_0006)     .7301                   ($N_0009)    1.5000                       

($N_0010)    1.9292                   ($N_0011)     .7692                       

($N_0012)     .3846                   ($N_0015)     .0261                       

($N_0018)    -.1840                   ($N_0019)     .0261                       

($N_0020)     .0130                   ($N_0021) 19.42E-06                       

($N_0022) 99.01E-06                   ($N_0023) 19.25E-06                       

($N_0026)     .0130                   ($N_0031)    -.0260                       

($N_0034)    0.0000                   ($N_0035)    0.0000                       

($N_0036)    0.0000                   ($N_0037) 19.25E-06                       

($N_0040) 24.86E-06                   ($N_0041)    -.7691                       

($N_0044) 19.10E-06                   (X_U1.10)    -.6077                       

(X_U1.11)   14.9600                   (X_U1.12)   14.9600                       

(X_U1.13)    -.5938                   (X_U1.14)    -.5938                       

(X_U1.53)   14.0000                   (X_U1.54)  -14.0000                       

(X_U1.90)   -2.3074                   (X_U1.91)   40.0000                       

(X_U1.92)  -40.0000                   (X_U1.99)    0.0000                       

(X_U10.6)    1.5007                   (X_U10.7)   -1.3006                       

(X_U10.8)   -1.3006                   (X_U10.9)    0.0000                       

(X_U11.6) 3.193E-06                   (X_U11.7)    -.0286                       

(X_U11.8)    -.0286                   (X_U11.9)    0.0000                       

(X_U12.6)   -1.5059                   (X_U12.7)    3.9599                       

(X_U12.8)    3.9599                   (X_U12.9)    0.0000                       

(X_U14.6)-3.222E-09                   (X_U14.7) 23.23E-06                       

(X_U14.8) 23.23E-06                   (X_U14.9)    0.0000                       

(X_U3.10)    -.6077                   (X_U3.11)   14.9600                       

(X_U3.12)   14.9600                   (X_U3.13)    -.5938                       

(X_U3.14)    -.5938                   (X_U3.53)   14.0000                       

(X_U3.54)  -14.0000                   (X_U3.90)    1.5406                       

(X_U3.91)   40.0000                   (X_U3.92)  -40.0000                       

(X_U3.99)    0.0000                   (X_U4.10)    -.6077                       

(X_U4.11)   14.9600                   (X_U4.12)   14.9600                       

(X_U4.13)    -.5938                   (X_U4.14)    -.5938                       

(X_U4.53)   14.0000                   (X_U4.54)  -14.0000                       

(X_U4.90) 144.0E-06                   (X_U4.91)   40.0000                       

(X_U4.92)  -40.0000                   (X_U4.99)    0.0000                       

(X_U5.10)    -.5993                   (X_U5.11)   14.9560                       

(X_U5.12)   14.9680                   (X_U5.13)    -.5837                       

(X_U5.14)    -.5881                   (X_U5.53)   14.0000                       

(X_U5.54)     .8160                   (X_U5.90)  -24.3390                       

(X_U5.91)   40.0000                   (X_U5.92)  -40.0000                       

(X_U5.99)    7.4080                   (X_U6.10)    -.5947                       

(X_U6.11)   14.9600                   (X_U6.12)   14.9600                       

(X_U6.13)    -.5808                   (X_U6.14)    -.5808                       

(X_U6.53)   14.0000                   (X_U6.54)  -14.0000                       

(X_U6.90)     .0392                   (X_U6.91)   40.0000                       

(X_U6.92)  -40.0000                   (X_U6.99)    0.0000                       

(X_U7.10)    -.6077                   (X_U7.11)   14.9600                       

(X_U7.12)   14.9600                   (X_U7.13)    -.5938                       

(X_U7.14)    -.5938                   (X_U7.53)   14.0000                       

(X_U7.54)  -14.0000                   (X_U7.90)     .0262                       

(X_U7.91)   40.0000                   (X_U7.92)  -40.0000                       

(X_U7.99)    0.0000                   (X_U9.10)    -.5816                       

(X_U9.11)   14.9600                   (X_U9.12)   14.9600                       

(X_U9.13)    -.5677                   (X_U9.14)    -.5677                       

(X_U9.53)   14.0000                   (X_U9.54)  -14.0000                       

(X_U9.90)     .0262                   (X_U9.91)   40.0000                       

(X_U9.92)  -40.0000                   (X_U9.99)    0.0000                       

(X_U10.10)     .0905                  (X_U10.11)   14.9200                      

(X_U10.12)   15.0000                  (X_U10.13)     .1183                      

(X_U10.14)     .0905                  (X_U10.53)   14.0000                      

(X_U10.54)  -14.0000                  (X_U10.90)  -40.6130                      

(X_U10.91)   40.0000                  (X_U10.92)  -40.0000                      

(X_U10.99)    0.0000                  (X_U11.10)    -.6077                      

(X_U11.11)   14.9600                  (X_U11.12)   14.9600                      

(X_U11.13)    -.5938                  (X_U11.14)    -.5938                      

(X_U11.53)   14.0000                  (X_U11.54)  -14.0000                      

(X_U11.90)    -.0520                  (X_U11.91)   40.0000                      

(X_U11.92)  -40.0000                  (X_U11.99)    0.0000                      

(X_U12.10)     .8601                  (X_U12.11)   15.0000                      

(X_U12.12)   14.9200                  (X_U12.13)     .8601                      

(X_U12.14)     .8881                  (X_U12.53)   14.0000                      

(X_U12.54)  -14.0000                  (X_U12.90)   40.6130                      

(X_U12.91)   40.0000                  (X_U12.92)  -40.0000                      

(X_U12.99)    0.0000                  (X_U14.10)    -.6077                      

(X_U14.11)   14.9600                  (X_U14.12)   14.9600                      

(X_U14.13)    -.5938                  (X_U14.14)    -.5938                      

(X_U14.53)   14.0000                  (X_U14.54)  -14.0000                      

(X_U14.90) 79.59E-06                  (X_U14.91)   40.0000                      

(X_U14.92)  -40.0000                  (X_U14.99)    0.0000                  




    VOLTAGE SOURCE CURRENTS
    NAME         CURRENT

    V_V4        -7.700E-04
    V_V2        -1.667E-02
    V_V3        -1.752E-02
    V_V1         2.349E-02
    V_V6         0.000E+00
    X_U3.vb     -4.382E-10
    X_U3.vc      1.377E-11
    X_U3.ve      1.478E-11
    X_U3.vlim    1.541E-03
    X_U3.vlp    -3.846E-11
    X_U3.vln    -4.154E-11
    X_U10.vb     1.501E-05
    X_U10.vc     1.327E-11
    X_U10.ve     1.528E-11
    X_U10.vlim  -4.061E-02
    X_U10.vlp   -8.061E-11
    X_U10.vln    1.592E-05
    X_U12.vb    -1.506E-05
    X_U12.vc     1.207E-11
    X_U12.ve     1.648E-11
    X_U12.vlim   4.061E-02
    X_U12.vlp    1.597E-05
    X_U12.vln   -8.062E-11
    X_U9.vb     -2.837E-11
    X_U9.vc      1.397E-11
    X_U9.ve      1.455E-11
    X_U9.vlim    2.619E-05
    X_U9.vlp    -3.997E-11
    X_U9.vln    -4.003E-11
    X_U4.vb     -1.166E-13
    X_U4.vc      1.400E-11
    X_U4.ve      1.455E-11
    X_U4.vlim    1.440E-07
    X_U4.vlp    -4.000E-11
    X_U4.vln    -4.000E-11
    X_U5.vb      2.304E-06
    X_U5.vc      1.399E-11
    X_U5.ve     -2.434E-02
    X_U5.vlim   -2.434E-02
    X_U5.vlp    -6.434E-11
    X_U5.vln    -1.566E-11
    X_U6.vb     -3.021E-11
    X_U6.vc      1.397E-11
    X_U6.ve      1.455E-11
    X_U6.vlim    3.917E-05
    X_U6.vlp    -3.996E-11
    X_U6.vln    -4.004E-11
    X_U11.vb     3.193E-11
    X_U11.vc     1.403E-11
    X_U11.ve     1.455E-11
    X_U11.vlim  -5.200E-05
    X_U11.vlp   -4.005E-11
    X_U11.vln   -3.995E-11
    X_U14.vb    -3.220E-14
    X_U14.vc     1.400E-11
    X_U14.ve     1.455E-11
    X_U14.vlim   7.959E-08
    X_U14.vlp   -4.000E-11
    X_U14.vln   -4.000E-11
    X_U1.vb      1.055E-09
    X_U1.vc      1.477E-11
    X_U1.ve      1.455E-11
    X_U1.vlim   -2.307E-03
    X_U1.vlp    -4.231E-11
    X_U1.vln    -3.770E-11
    X_U7.vb     -2.835E-11
    X_U7.vc      1.397E-11
    X_U7.ve      1.455E-11
    X_U7.vlim    2.616E-05
    X_U7.vlp    -3.997E-11
    X_U7.vln    -4.003E-11

    TOTAL POWER DISSIPATION   5.33E-01  WATTS


**** 02/22/22 16:11:12 ********* PSpice 9.2 (Mar 2000) ******** ID# 0 ********

 * E:\OneDrive - BUET\Tahsin\CODING ZONE\PSPICE Simulation\ALL EXPERIMENTS\EEE 208\OP-AMP\Regulated Variable DC Power Supply Generati


 ****     SMALL SIGNAL BIAS SOLUTION       TEMPERATURE =   27.000 DEG C

 ****     CURRENT STEP                     PARAM VAR1 =  250   


******************************************************************************



 NODE   VOLTAGE     NODE   VOLTAGE     NODE   VOLTAGE     NODE   VOLTAGE


(   V+)   15.0000  (   V-)  -15.0000  (X_U1.6) 105.5E-06 (X_U1.7)    -.8845     

(X_U1.8)    -.8845 (X_U1.9)    0.0000 (X_U3.6)-58.34E-06 (X_U3.7)     .4617     

(X_U3.8)     .4617 (X_U3.9)    0.0000 (X_U4.6)-11.66E-09 (X_U4.7) 106.2E-06     

(X_U4.8) 106.2E-06 (X_U4.9)    0.0000 (X_U5.6)     .2304 (X_U5.7)   -1.2039     

(X_U5.8)   -1.2039 (X_U5.9)    0.0000 (X_U6.6)-3.021E-06 (X_U6.7)     .0281     

(X_U6.8)     .0281 (X_U6.9)    0.0000 (X_U7.6)-2.835E-06 (X_U7.7)     .0274     

(X_U7.8)     .0274 (X_U7.9)    0.0000 (X_U9.6)-2.837E-06 (X_U9.7)     .0274     

(X_U9.8)     .0274 (X_U9.9)    0.0000 ($N_0001) 16.15E-06                       

($N_0002)     .3846                   ($N_0005)     .0261                       

($N_0006)     .7301                   ($N_0009)    1.5000                       

($N_0010)    1.9292                   ($N_0011)     .7692                       

($N_0012)     .3846                   ($N_0015)     .0261                       

($N_0018)    -.1840                   ($N_0019)     .0261                       

($N_0020)     .0130                   ($N_0021) 19.42E-06                       

($N_0022) 99.01E-06                   ($N_0023) 19.25E-06                       

($N_0026)     .0130                   ($N_0031)    -.0260                       

($N_0034)    0.0000                   ($N_0035)    0.0000                       

($N_0036)    0.0000                   ($N_0037) 19.25E-06                       

($N_0040) 24.86E-06                   ($N_0041)    -.7691                       

($N_0044) 19.10E-06                   (X_U1.10)    -.6077                       

(X_U1.11)   14.9600                   (X_U1.12)   14.9600                       

(X_U1.13)    -.5938                   (X_U1.14)    -.5938                       

(X_U1.53)   14.0000                   (X_U1.54)  -14.0000                       

(X_U1.90)   -2.3074                   (X_U1.91)   40.0000                       

(X_U1.92)  -40.0000                   (X_U1.99)    0.0000                       

(X_U10.6)    1.5007                   (X_U10.7)   -1.3006                       

(X_U10.8)   -1.3006                   (X_U10.9)    0.0000                       

(X_U11.6) 3.193E-06                   (X_U11.7)    -.0286                       

(X_U11.8)    -.0286                   (X_U11.9)    0.0000                       

(X_U12.6)   -1.5059                   (X_U12.7)    3.9599                       

(X_U12.8)    3.9599                   (X_U12.9)    0.0000                       

(X_U14.6)-3.222E-09                   (X_U14.7) 23.23E-06                       

(X_U14.8) 23.23E-06                   (X_U14.9)    0.0000                       

(X_U3.10)    -.6077                   (X_U3.11)   14.9600                       

(X_U3.12)   14.9600                   (X_U3.13)    -.5938                       

(X_U3.14)    -.5938                   (X_U3.53)   14.0000                       

(X_U3.54)  -14.0000                   (X_U3.90)    1.5422                       

(X_U3.91)   40.0000                   (X_U3.92)  -40.0000                       

(X_U3.99)    0.0000                   (X_U4.10)    -.6077                       

(X_U4.11)   14.9600                   (X_U4.12)   14.9600                       

(X_U4.13)    -.5938                   (X_U4.14)    -.5938                       

(X_U4.53)   14.0000                   (X_U4.54)  -14.0000                       

(X_U4.90) 144.0E-06                   (X_U4.91)   40.0000                       

(X_U4.92)  -40.0000                   (X_U4.99)    0.0000                       

[...]
VD          -1.21E+01   -1.59E+01    6.13E-01   -8.06E+01   -3.00E+01 
REQ          1.00E+12    1.00E+12    1.62E+03    1.00E+12    1.00E+12 
CAP          2.77E-12    2.43E-12    0.00E+00    0.00E+00    0.00E+00 

NAME         X_U9.dc     X_U9.de     X_U9.dlp    X_U9.dln    X_U9.dp   
MODEL        X_U9.dy     X_U9.dy     X_U9.dx     X_U9.dx     X_U9.dx   
ID          -1.40E-11   -1.40E-11   -4.00E-11   -4.00E-11   -3.00E-11 
VD          -1.40E+01   -1.40E+01   -4.00E+01   -4.00E+01   -3.00E+01 
REQ          1.00E+12    1.00E+12    1.00E+12    1.00E+12    1.00E+12 
CAP          2.58E-12    2.58E-12    0.00E+00    0.00E+00    0.00E+00 

NAME         X_U4.dc     X_U4.de     X_U4.dlp    X_U4.dln    X_U4.dp   
MODEL        X_U4.dy     X_U4.dy     X_U4.dx     X_U4.dx     X_U4.dx   
ID          -1.40E-11   -1.40E-11   -4.00E-11   -4.00E-11   -3.00E-11 
VD          -1.40E+01   -1.40E+01   -4.00E+01   -4.00E+01   -3.00E+01 
REQ          1.00E+12    1.00E+12    1.00E+12    1.00E+12    1.00E+12 
CAP          2.58E-12    2.58E-12    0.00E+00    0.00E+00    0.00E+00 

NAME         X_U5.dc     X_U5.de     X_U5.dlp    X_U5.dln    X_U5.dp   
MODEL        X_U5.dy     X_U5.dy     X_U5.dx     X_U5.dx     X_U5.dx   
ID          -1.40E-11    2.43E-02   -6.43E-11   -1.57E-11   -1.52E-11 
VD          -1.40E+01    8.03E-01   -6.43E+01   -1.57E+01   -1.52E+01 
REQ          1.00E+12    1.06E+00    1.00E+12    1.00E+12    1.00E+12 
CAP          2.58E-12    1.84E-11    0.00E+00    0.00E+00    0.00E+00 

NAME         X_U6.dc     X_U6.de     X_U6.dlp    X_U6.dln    X_U6.dp   
MODEL        X_U6.dy     X_U6.dy     X_U6.dx     X_U6.dx     X_U6.dx   
ID          -1.40E-11   -1.40E-11   -4.00E-11   -4.00E-11   -3.00E-11 
VD          -1.40E+01   -1.40E+01   -4.00E+01   -4.00E+01   -3.00E+01 
REQ          1.00E+12    1.00E+12    1.00E+12    1.00E+12    1.00E+12 
CAP          2.58E-12    2.58E-12    0.00E+00    0.00E+00    0.00E+00 

NAME         X_U11.dc    X_U11.de    X_U11.dlp   X_U11.dln   X_U11.dp  
MODEL        X_U11.dy    X_U11.dy    X_U11.dx    X_U11.dx    X_U11.dx  
ID          -1.40E-11   -1.40E-11   -4.01E-11   -3.99E-11   -3.00E-11 
VD          -1.40E+01   -1.40E+01   -4.01E+01   -3.99E+01   -3.00E+01 
REQ          1.00E+12    1.00E+12    1.00E+12    1.00E+12    1.00E+12 
CAP          2.58E-12    2.58E-12    0.00E+00    0.00E+00    0.00E+00 

NAME         X_U14.dc    X_U14.de    X_U14.dlp   X_U14.dln   X_U14.dp  
MODEL        X_U14.dy    X_U14.dy    X_U14.dx    X_U14.dx    X_U14.dx  
ID          -1.40E-11   -1.40E-11   -4.00E-11   -4.00E-11   -3.00E-11 
VD          -1.40E+01   -1.40E+01   -4.00E+01   -4.00E+01   -3.00E+01 
REQ          1.00E+12    1.00E+12    1.00E+12    1.00E+12    1.00E+12 
CAP          2.58E-12    2.58E-12    0.00E+00    0.00E+00    0.00E+00 

NAME         X_U1.dc     X_U1.de     X_U1.dlp    X_U1.dln    X_U1.dp   
MODEL        X_U1.dy     X_U1.dy     X_U1.dx     X_U1.dx     X_U1.dx   
ID          -1.48E-11   -1.32E-11   -4.23E-11   -3.77E-11   -3.00E-11 
VD          -1.48E+01   -1.32E+01   -4.23E+01   -3.77E+01   -3.00E+01 
REQ          1.00E+12    1.00E+12    1.00E+12    1.00E+12    1.00E+12 
CAP          2.52E-12    2.65E-12    0.00E+00    0.00E+00    0.00E+00 

NAME         X_U7.dc     X_U7.de     X_U7.dlp    X_U7.dln    X_U7.dp   
MODEL        X_U7.dy     X_U7.dy     X_U7.dx     X_U7.dx     X_U7.dx   
ID          -1.40E-11   -1.40E-11   -4.00E-11   -4.00E-11   -3.00E-11 
VD          -1.40E+01   -1.40E+01   -4.00E+01   -4.00E+01   -3.00E+01 
REQ          1.00E+12    1.00E+12    1.00E+12    1.00E+12    1.00E+12 
CAP          2.58E-12    2.58E-12    0.00E+00    0.00E+00    0.00E+00 


**** BIPOLAR JUNCTION TRANSISTORS


NAME         Q_Q1        X_U3.q1     X_U3.q2     X_U10.q1    X_U10.q2  
MODEL        Q2N3904     X_U3.qx     X_U3.qx     X_U10.qx    X_U10.qx  
IB           4.06E-02    7.97E-08    7.97E-08    1.60E-07   -1.50E-11 
IC          -3.98E-02    7.48E-06    7.48E-06    1.50E-05    2.99E-11 
VBE          1.16E+00    5.94E-01    5.94E-01    6.12E-01   -6.43E-02 
VBC          1.20E+00   -1.50E+01   -1.50E+01   -1.42E+01   -1.50E+01 
VCE         -3.91E-02    1.56E+01    1.56E+01    1.48E+01    1.49E+01 
BETADC      -9.81E-01    9.38E+01    9.38E+01    9.38E+01   -2.00E+00 
GM           1.91E-02    2.89E-04    2.89E-04    5.80E-04    2.57E-15 
RPI          1.93E+02    3.24E+05    3.24E+05    1.62E+05    9.35E+13 
RX           1.00E+01    0.00E+00    0.00E+00    0.00E+00    0.00E+00 
RO           1.18E+00    1.00E+12    1.00E+12    1.00E+12    1.00E+12 
CBE          2.25E-10    0.00E+00    0.00E+00    0.00E+00    0.00E+00 
CBC          2.76E-07    0.00E+00    0.00E+00    0.00E+00    0.00E+00 
CJS          0.00E+00    0.00E+00    0.00E+00    0.00E+00    0.00E+00 
BETAAC       3.68E+00    9.38E+01    9.38E+01    9.38E+01    2.40E-01 
CBX/CBX2     0.00E+00    0.00E+00    0.00E+00    0.00E+00    0.00E+00 
FT/FT2       1.10E+04    4.60E+15    4.60E+15    9.23E+15    4.09E+04 



NAME         X_U12.q1    X_U12.q2    X_U9.q1     X_U9.q2     X_U4.q1   
MODEL        X_U12.qx    X_U12.qx    X_U9.qx     X_U9.qx     X_U4.qx   
IB          -1.46E-11    1.61E-07    7.98E-08    7.97E-08    7.98E-08 
IC           2.88E-11    1.51E-05    7.48E-06    7.48E-06    7.48E-06 
VBE         -4.76E-01    6.12E-01    5.94E-01    5.94E-01    5.94E-01 
VBC         -1.46E+01   -1.34E+01   -1.49E+01   -1.49E+01   -1.50E+01 
VCE          1.41E+01    1.40E+01    1.55E+01    1.55E+01    1.56E+01 
BETADC      -1.97E+00    9.38E+01    9.38E+01    9.38E+01    9.38E+01 
GM           0.00E+00    5.82E-04    2.89E-04    2.89E-04    2.89E-04 
RPI          9.38E+13    1.61E+05    3.24E+05    3.24E+05    3.24E+05 
RX           0.00E+00    0.00E+00    0.00E+00    0.00E+00    0.00E+00 
RO           1.00E+12    1.00E+12    1.00E+12    1.00E+12    1.00E+12 
CBE          0.00E+00    0.00E+00    0.00E+00    0.00E+00    0.00E+00 
CBC          0.00E+00    0.00E+00    0.00E+00    0.00E+00    0.00E+00 
CJS          0.00E+00    0.00E+00    0.00E+00    0.00E+00    0.00E+00 
BETAAC       0.00E+00    9.38E+01    9.38E+01    9.38E+01    9.38E+01 
CBX/CBX2     0.00E+00    0.00E+00    0.00E+00    0.00E+00    0.00E+00 
FT/FT2       0.00E+00    9.27E+15    4.60E+15    4.60E+15    4.60E+15 



NAME         X_U4.q2     X_U5.q1     X_U5.q2     X_U6.q1     X_U6.q2   
MODEL        X_U4.qx     X_U5.qx     X_U5.qx     X_U6.qx     X_U6.qx   
IB           7.97E-08    8.93E-08    6.42E-08    7.98E-08    7.97E-08 
IC           7.48E-06    8.38E-06    6.02E-06    7.48E-06    7.48E-06 
VBE          5.94E-01    5.97E-01    5.88E-01    5.94E-01    5.94E-01 
VBC         -1.50E+01   -1.49E+01   -1.50E+01   -1.49E+01   -1.49E+01 
VCE          1.56E+01    1.55E+01    1.56E+01    1.55E+01    1.55E+01 
BETADC       9.38E+01    9.38E+01    9.38E+01    9.38E+01    9.38E+01 
GM           2.89E-04    3.24E-04    2.33E-04    2.89E-04    2.89E-04 
RPI          3.24E+05    2.90E+05    4.03E+05    3.24E+05    3.24E+05 
RX           0.00E+00    0.00E+00    0.00E+00    0.00E+00    0.00E+00 
RO           1.00E+12    1.00E+12    1.00E+12    1.00E+12    1.00E+12 
CBE          0.00E+00    0.00E+00    0.00E+00    0.00E+00    0.00E+00 
CBC          0.00E+00    0.00E+00    0.00E+00    0.00E+00    0.00E+00 
CJS          0.00E+00    0.00E+00    0.00E+00    0.00E+00    0.00E+00 
BETAAC       9.38E+01    9.38E+01    9.38E+01    9.38E+01    9.38E+01 
CBX/CBX2     0.00E+00    0.00E+00    0.00E+00    0.00E+00    0.00E+00 
FT/FT2       4.60E+15    5.15E+15    3.71E+15    4.60E+15    4.60E+15 



NAME         X_U11.q1    X_U11.q2    X_U14.q1    X_U14.q2    X_U1.q1   
MODEL        X_U11.qx    X_U11.qx    X_U14.qx    X_U14.qx    X_U1.qx   
IB           7.98E-08    7.97E-08    7.98E-08    7.97E-08    7.98E-08 
IC           7.48E-06    7.48E-06    7.48E-06    7.48E-06    7.48E-06 
VBE          5.94E-01    5.94E-01    5.94E-01    5.94E-01    5.94E-01 
VBC         -1.50E+01   -1.50E+01   -1.50E+01   -1.50E+01   -1.50E+01 
VCE          1.56E+01    1.56E+01    1.56E+01    1.56E+01    1.56E+01 
BETADC       9.38E+01    9.38E+01    9.38E+01    9.38E+01    9.38E+01 
GM           2.89E-04    2.89E-04    2.89E-04    2.89E-04    2.89E-04 
RPI          3.24E+05    3.24E+05    3.24E+05    3.24E+05    3.24E+05 
RX           0.00E+00    0.00E+00    0.00E+00    0.00E+00    0.00E+00 
RO           1.00E+12    1.00E+12    1.00E+12    1.00E+12    1.00E+12 
CBE          0.00E+00    0.00E+00    0.00E+00    0.00E+00    0.00E+00 
CBC          0.00E+00    0.00E+00    0.00E+00    0.00E+00    0.00E+00 
CJS          0.00E+00    0.00E+00    0.00E+00    0.00E+00    0.00E+00 
BETAAC       9.38E+01    9.38E+01    9.38E+01    9.38E+01    9.38E+01 
CBX/CBX2     0.00E+00    0.00E+00    0.00E+00    0.00E+00    0.00E+00 
FT/FT2       4.60E+15    4.60E+15    4.60E+15    4.60E+15    4.60E+15 



NAME         X_U1.q2     X_U7.q1     X_U7.q2   
MODEL        X_U1.qx     X_U7.qx     X_U7.qx   
IB           7.97E-08    7.98E-08    7.97E-08 
IC           7.47E-06    7.48E-06    7.48E-06 
VBE          5.94E-01    5.94E-01    5.94E-01 
VBC         -1.50E+01   -1.50E+01   -1.50E+01 
VCE          1.56E+01    1.56E+01    1.56E+01 
BETADC       9.38E+01    9.38E+01    9.38E+01 
GM           2.89E-04    2.89E-04    2.89E-04 
RPI          3.24E+05    3.24E+05    3.24E+05 
RX           0.00E+00    0.00E+00    0.00E+00 
RO           1.00E+12    1.00E+12    1.00E+12 
CBE          0.00E+00    0.00E+00    0.00E+00 
CBC          0.00E+00    0.00E+00    0.00E+00 
CJS          0.00E+00    0.00E+00    0.00E+00 
BETAAC       9.38E+01    9.38E+01    9.38E+01 
CBX/CBX2     0.00E+00    0.00E+00    0.00E+00 
FT/FT2       4.60E+15    4.60E+15    4.60E+15 


**** 02/22/22 16:11:12 ********* PSpice 9.2 (Mar 2000) ******** ID# 0 ********

 * E:\OneDrive - BUET\Tahsin\CODING ZONE\PSPICE Simulation\ALL EXPERIMENTS\EEE 208\OP-AMP\Regulated Variable DC Power Supply Generati


 ****     INITIAL TRANSIENT SOLUTION       TEMPERATURE =   27.000 DEG C

 ****     CURRENT STEP                     PARAM VAR1 =    2.9500E+03


******************************************************************************



 NODE   VOLTAGE     NODE   VOLTAGE     NODE   VOLTAGE     NODE   VOLTAGE


(   V+)   15.0000  (   V-)  -15.0000  (X_U1.6) 105.5E-06 (X_U1.7)    -.8845     

(X_U1.8)    -.8845 (X_U1.9)    0.0000 (X_U3.6)-450.4E-06 (X_U3.7)    4.6171     

(X_U3.8)    4.6171 (X_U3.9)    0.0000 (X_U4.6)-11.66E-09 (X_U4.7) 106.2E-06     

(X_U4.8) 106.2E-06 (X_U4.9)    0.0000 (X_U5.6)     .2304 (X_U5.7)   -1.2039     

(X_U5.8)   -1.2039 (X_U5.9)    0.0000 (X_U6.6)-3.021E-06 (X_U6.7)     .0281     

(X_U6.8)     .0281 (X_U6.9)    0.0000 (X_U7.6)-2.835E-06 (X_U7.7)     .0274     

(X_U7.8)     .0274 (X_U7.9)    0.0000 (X_U9.6)-2.837E-06 (X_U9.7)     .0274     

(X_U9.8)     .0274 (X_U9.9)    0.0000 ($N_0001)-4.685E-06                       

($N_0002)    4.5380                   ($N_0005)     .0261                       

($N_0006)     .7301                   ($N_0009)    1.5000                       

($N_0010)    1.9292                   ($N_0011)     .7692                       

($N_0012)     .3846                   ($N_0015)     .0261                       

($N_0018)    -.1840                   ($N_0019)     .0261                       

($N_0020)     .0130                   ($N_0021) 19.42E-06                       

($N_0022) 99.01E-06                   ($N_0023) 19.25E-06                       

($N_0026)     .0130                   ($N_0031)    -.0260                       

($N_0034)    0.0000                   ($N_0035)    0.0000                       

($N_0036)    0.0000                   ($N_0037) 19.25E-06                       

($N_0040) 24.86E-06                   ($N_0041)    -.7691                       

($N_0044) 19.10E-06                   (X_U1.10)    -.6077                       

(X_U1.11)   14.9600                   (X_U1.12)   14.9600                       

(X_U1.13)    -.5938                   (X_U1.14)    -.5938                       

(X_U1.53)   14.0000                   (X_U1.54)  -14.0000                       

(X_U1.90)   -2.3074                   (X_U1.91)   40.0000                       

(X_U1.92)  -40.0000                   (X_U1.99)    0.0000                       

(X_U10.6)    1.5007                   (X_U10.7)   -1.3006                       

(X_U10.8)   -1.3006                   (X_U10.9)    0.0000                       

(X_U11.6) 3.193E-06                   (X_U11.7)    -.0286                       

(X_U11.8)    -.0286                   (X_U11.9)    0.0000                       

(X_U12.6)   -1.5059                   (X_U12.7)    3.9599                       

(X_U12.8)    3.9599                   (X_U12.9)    0.0000                       

(X_U14.6)-3.220E-09                   (X_U14.7) 23.23E-06                       

(X_U14.8) 23.23E-06                   (X_U14.9)    0.0000                       

(X_U3.10)    -.6077                   (X_U3.11)   14.9600                       

(X_U3.12)   14.9600                   (X_U3.13)    -.5938                       

(X_U3.14)    -.5938                   (X_U3.53)   14.0000                       

(X_U3.54)  -14.0000                   (X_U3.90)    1.5837                       

(X_U3.91)   40.0000                   (X_U3.92)  -40.0000                       

(X_U3.99)    0.0000                   (X_U4.10)    -.6077                       

(X_U4.11)   14.9600                   (X_U4.12)   14.9600                       

(X_U4.13)    -.5938                   (X_U4.14)    -.5938                       

(X_U4.53)   14.0000                   (X_U4.54)  -14.0000                       

(X_U4.90) 144.0E-06                   (X_U4.91)   40.0000                       

(X_U4.92)  -40.0000                   (X_U4.99)    0.0000                       

(X_U5.10)    -.5993                   (X_U5.11)   14.9560                       

(X_U5.12)   14.9680                   (X_U5.13)    -.5837                       

(X_U5.14)    -.5881                   (X_U5.53)   14.0000                       

(X_U5.54)     .8160                   (X_U5.90)  -24.3390                       

(X_U5.91)   40.0000                   (X_U5.92)  -40.0000                       

(X_U5.99)    7.4080                   (X_U6.10)    -.5947                       

(X_U6.11)   14.9600                   (X_U6.12)   14.9600                       

(X_U6.13)    -.5808                   (X_U6.14)    -.5808                       

(X_U6.53)   14.0000                   (X_U6.54)  -14.0000                       

(X_U6.90)     .0392                   (X_U6.91)   40.0000                       

(X_U6.92)  -40.0000                   (X_U6.99)    0.0000                       

(X_U7.10)    -.6077                   (X_U7.11)   14.9600                       

(X_U7.12)   14.9600                   (X_U7.13)    -.5938                       

(X_U7.14)    -.5938                   (X_U7.53)   14.0000                       

(X_U7.54)  -14.0000                   (X_U7.90)     .0262                       

(X_U7.91)   40.0000                   (X_U7.92)  -40.0000                       

(X_U7.99)    0.0000                   (X_U9.10)    -.5816                       

(X_U9.11)   14.9600                   (X_U9.12)   14.9600                       

(X_U9.13)    -.5677                   (X_U9.14)    -.5677                       

(X_U9.53)   14.0000                   (X_U9.54)  -14.0000                       

(X_U9.90)     .0262                   (X_U9.91)   40.0000                       

(X_U9.92)  -40.0000                   (X_U9.99)    0.0000                       

(X_U10.10)     .0905                  (X_U10.11)   14.9200                      

(X_U10.12)   15.0000                  (X_U10.13)     .1183                      

(X_U10.14)     .0905                  (X_U10.53)   14.0000                      

(X_U10.54)  -14.0000                  (X_U10.90)  -40.6130                      

(X_U10.91)   40.0000                  (X_U10.92)  -40.0000                      

(X_U10.99)    0.0000                  (X_U11.10)    -.6077                      

(X_U11.11)   14.9600                  (X_U11.12)   14.9600                      

(X_U11.13)    -.5938                  (X_U11.14)    -.5938                      

(X_U11.53)   14.0000                  (X_U11.54)  -14.0000                      

(X_U11.90)    -.0520                  (X_U11.91)   40.0000                      

(X_U11.92)  -40.0000                  (X_U11.99)    0.0000                      

(X_U12.10)     .8601                  (X_U12.11)   15.0000                      

(X_U12.12)   14.9200                  (X_U12.13)     .8601                      

(X_U12.14)     .8881                  (X_U12.53)   14.0000                      

(X_U12.54)  -14.0000                  (X_U12.90)   40.6130                      

(X_U12.91)   40.0000                  (X_U12.92)  -40.0000                      

(X_U12.99)    0.0000                  (X_U14.10)    -.6077                      

(X_U14.11)   14.9600                  (X_U14.12)   14.9600                      

(X_U14.13)    -.5938                  (X_U14.14)    -.5938                      

(X_U14.53)   14.0000                  (X_U14.54)  -14.0000                      

(X_U14.90) 79.59E-06                  (X_U14.91)   40.0000                      

(X_U14.92)  -40.0000                  (X_U14.99)    0.0000                  




    VOLTAGE SOURCE CURRENTS
    NAME         CURRENT

    V_V4        -7.700E-04
    V_V2        -1.667E-02
    V_V3        -1.752E-02
    V_V1         2.349E-02
    V_V6         0.000E+00
    X_U3.vb     -4.504E-09
    X_U3.vc      9.463E-12
    X_U3.ve      1.909E-11
    X_U3.vlim    1.584E-03
    X_U3.vlp    -3.842E-11
    X_U3.vln    -4.159E-11
    X_U10.vb     1.501E-05
    X_U10.vc     1.327E-11
    X_U10.ve     1.455E-11
    X_U10.vlim  -4.061E-02
    X_U10.vlp   -8.061E-11
    X_U10.vln    1.592E-05
    X_U12.vb    -1.506E-05
    X_U12.vc     1.207E-11
    X_U12.ve     1.648E-11
    X_U12.vlim   4.061E-02
    X_U12.vlp    1.597E-05
    X_U12.vln   -8.062E-11
    X_U9.vb     -2.837E-11
    X_U9.vc      1.397E-11
    X_U9.ve      1.458E-11
    X_U9.vlim    2.619E-05
    X_U9.vlp    -3.997E-11
    X_U9.vln    -4.003E-11
    X_U4.vb     -1.166E-13
    X_U4.vc      1.400E-11
    X_U4.ve      1.455E-11
    X_U4.vlim    1.440E-07
    X_U4.vlp    -4.000E-11
    X_U4.vln    -4.000E-11
    X_U5.vb      2.304E-06
    X_U5.vc      1.399E-11
    X_U5.ve     -2.434E-02
    X_U5.vlim   -2.434E-02
    X_U5.vlp    -6.434E-11
    X_U5.vln    -1.566E-11
    X_U6.vb     -3.021E-11
    X_U6.vc      1.397E-11
    X_U6.ve      1.458E-11
    X_U6.vlim    3.917E-05
    X_U6.vlp    -3.996E-11
    X_U6.vln    -4.004E-11
    X_U11.vb     3.193E-11
    X_U11.vc     1.403E-11
    X_U11.ve     1.453E-11
    X_U11.vlim  -5.200E-05
    X_U11.vlp   -4.005E-11
    X_U11.vln   -3.995E-11
    X_U14.vb    -3.220E-14
    X_U14.vc     1.400E-11
    X_U14.ve     1.455E-11
    X_U14.vlim   7.959E-08
    X_U14.vlp   -4.000E-11
    X_U14.vln   -4.000E-11
    X_U1.vb      1.055E-09
    X_U1.vc      1.477E-11
    X_U1.ve      1.455E-11
    X_U1.vlim   -2.307E-03
    X_U1.vlp    -4.231E-11
    X_U1.vln    -3.770E-11
    X_U7.vb     -2.835E-11
    X_U7.vc      1.397E-11
    X_U7.ve      1.458E-11
    X_U7.vlim    2.616E-05
    X_U7.vlp    -3.997E-11
    X_U7.vln    -4.003E-11

    TOTAL POWER DISSIPATION   5.33E-01  WATTS



          JOB CONCLUDED

          TOTAL JOB TIME          183.78
